/*---------------------------------------------------------------------------*\
| =========                 |                                                 |
| \\      /  F ield         | foam-extend: Open Source CFD                    |
|  \\    /   O peration     | Version:     4.0                                |
|   \\  /    A nd           | Web:         http://www.foam-extend.org         |
|    \\/     M anipulation  | For copyright notice see file Copyright         |
\*---------------------------------------------------------------------------*/
Build    : 4.0-268bb07d15d8
Exec     : pisoFoam
Date     : Sep 25 2019
Time     : 09:20:05
Host     : magnus-ThinkPad-X240
PID      : 16669
CtrlDict : "/home/magnus/foam/magnus-4.0/applications/solvers/projection/rk4projectionFoam/example/NEW_piso/system/controlDict"
Case     : /home/magnus/foam/magnus-4.0/applications/solvers/projection/rk4projectionFoam/example/NEW_piso
nProcs   : 1
SigFpe   : Enabling floating point exception trapping (FOAM_SIGFPE).

// * * * * * * * * * * * * * * * * * * * * * * * * * * * * * * * * * * * * * //
Create time

Create mesh for time = 0


PISO: Operating solver in PISO mode

Reading field p

Reading field U

Reading/calculating face flux field phi

Selecting incompressible transport model Newtonian
Selecting turbulence model type laminar

Starting time loop

Searching for probe point locations
--> FOAM Warning : 
    From function void forces::read(const dictionary& dict)
    in file forces/forces.C at line 277
    Could not find U, p or rho in database.
    De-activating forces.
Time = 0.005

Courant Number mean: 0 max: 0.00277826 velocity magnitude: 0.00471
BiCGStab:  Solving for Ux, Initial residual = 1, Final residual = 3.57212e-11, No Iterations 1
BiCGStab:  Solving for Uy, Initial residual = 1, Final residual = 3.29971e-11, No Iterations 1
DICPCG:  Solving for p, Initial residual = 1, Final residual = 0.0948269, No Iterations 177
time step continuity errors : sum local = 1.49662e-06, global = -1.55956e-08, cumulative = -1.55956e-08
DICPCG:  Solving for p, Initial residual = 0.0271242, Final residual = 0.0026444, No Iterations 40
time step continuity errors : sum local = 4.24979e-06, global = 1.0978e-07, cumulative = 9.41849e-08
ExecutionTime = 0.49 s  ClockTime = 0 s

Time = 0.01

Courant Number mean: 0.00262688 max: 0.0324735 velocity magnitude: 0.00867372
BiCGStab:  Solving for Ux, Initial residual = 0.964986, Final residual = 5.37249e-08, No Iterations 1
BiCGStab:  Solving for Uy, Initial residual = 0.338276, Final residual = 3.04917e-07, No Iterations 1
DICPCG:  Solving for p, Initial residual = 0.0229592, Final residual = 0.00190933, No Iterations 177
time step continuity errors : sum local = 3.14055e-06, global = 2.34841e-08, cumulative = 1.17669e-07
DICPCG:  Solving for p, Initial residual = 0.56677, Final residual = 0.0533878, No Iterations 39
time step continuity errors : sum local = 4.0875e-06, global = -1.24416e-07, cumulative = -6.7466e-09
ExecutionTime = 0.72 s  ClockTime = 0 s

Time = 0.015

Courant Number mean: 0.00264497 max: 0.0352853 velocity magnitude: 0.00955851
BiCGStab:  Solving for Ux, Initial residual = 0.207131, Final residual = 2.38646e-08, No Iterations 1
BiCGStab:  Solving for Uy, Initial residual = 0.194232, Final residual = 2.79424e-08, No Iterations 1
DICPCG:  Solving for p, Initial residual = 0.551724, Final residual = 0.0528012, No Iterations 50
time step continuity errors : sum local = 1.85186e-06, global = -7.40634e-08, cumulative = -8.081e-08
DICPCG:  Solving for p, Initial residual = 0.136518, Final residual = 0.0132968, No Iterations 128
time step continuity errors : sum local = 3.63687e-07, global = -6.24089e-09, cumulative = -8.70509e-08
ExecutionTime = 0.91 s  ClockTime = 1 s

Time = 0.02

Courant Number mean: 0.00263543 max: 0.0338825 velocity magnitude: 0.0091785
BiCGStab:  Solving for Ux, Initial residual = 0.150482, Final residual = 2.93928e-08, No Iterations 1
BiCGStab:  Solving for Uy, Initial residual = 0.0766062, Final residual = 2.57893e-08, No Iterations 1
DICPCG:  Solving for p, Initial residual = 0.238223, Final residual = 0.023107, No Iterations 51
time step continuity errors : sum local = 6.9467e-07, global = 1.1672e-07, cumulative = 2.96688e-08
DICPCG:  Solving for p, Initial residual = 0.0536231, Final residual = 0.00509005, No Iterations 130
time step continuity errors : sum local = 1.22432e-07, global = 5.38174e-10, cumulative = 3.0207e-08
ExecutionTime = 1.11 s  ClockTime = 1 s

Time = 0.025

Courant Number mean: 0.00263472 max: 0.0336794 velocity magnitude: 0.00912349
BiCGStab:  Solving for Ux, Initial residual = 0.0193714, Final residual = 7.54498e-09, No Iterations 1
BiCGStab:  Solving for Uy, Initial residual = 0.0256403, Final residual = 6.93247e-09, No Iterations 1
DICPCG:  Solving for p, Initial residual = 0.220636, Final residual = 0.0217139, No Iterations 13
time step continuity errors : sum local = 2.7524e-07, global = 3.57682e-09, cumulative = 3.37838e-08
DICPCG:  Solving for p, Initial residual = 0.035636, Final residual = 0.00335894, No Iterations 71
time step continuity errors : sum local = 3.63732e-08, global = 4.61542e-09, cumulative = 3.83993e-08
ExecutionTime = 1.24 s  ClockTime = 1 s

Time = 0.03

Courant Number mean: 0.00263462 max: 0.0334668 velocity magnitude: 0.00911463
BiCGStab:  Solving for Ux, Initial residual = 0.0142928, Final residual = 6.19793e-09, No Iterations 1
BiCGStab:  Solving for Uy, Initial residual = 0.0133213, Final residual = 4.87843e-09, No Iterations 1
DICPCG:  Solving for p, Initial residual = 0.148893, Final residual = 0.0139212, No Iterations 6
time step continuity errors : sum local = 1.34075e-07, global = 9.20599e-09, cumulative = 4.76053e-08
DICPCG:  Solving for p, Initial residual = 0.0198661, Final residual = 0.00196712, No Iterations 153
time step continuity errors : sum local = 1.69797e-08, global = -9.63586e-11, cumulative = 4.75089e-08
ExecutionTime = 1.42 s  ClockTime = 1 s

Time = 0.035

Courant Number mean: 0.00263358 max: 0.0331938 velocity magnitude: 0.00911146
BiCGStab:  Solving for Ux, Initial residual = 0.0140114, Final residual = 4.93135e-09, No Iterations 1
BiCGStab:  Solving for Uy, Initial residual = 0.00816654, Final residual = 3.70653e-09, No Iterations 1
DICPCG:  Solving for p, Initial residual = 0.107864, Final residual = 0.00945302, No Iterations 3
time step continuity errors : sum local = 7.84357e-08, global = -4.82734e-09, cumulative = 4.26816e-08
DICPCG:  Solving for p, Initial residual = 0.0118792, Final residual = 0.00117277, No Iterations 146
time step continuity errors : sum local = 8.9726e-09, global = 3.77562e-11, cumulative = 4.27193e-08
ExecutionTime = 1.59 s  ClockTime = 1 s

Time = 0.04

Courant Number mean: 0.00263301 max: 0.0331121 velocity magnitude: 0.0091025
BiCGStab:  Solving for Ux, Initial residual = 0.0088585, Final residual = 3.93884e-09, No Iterations 1
BiCGStab:  Solving for Uy, Initial residual = 0.00634221, Final residual = 3.03081e-09, No Iterations 1
DICPCG:  Solving for p, Initial residual = 0.0942044, Final residual = 0.00729326, No Iterations 3
time step continuity errors : sum local = 4.91135e-08, global = 1.81395e-10, cumulative = 4.29007e-08
DICPCG:  Solving for p, Initial residual = 0.00910895, Final residual = 0.00089113, No Iterations 70
time step continuity errors : sum local = 5.57888e-09, global = -3.595e-10, cumulative = 4.25412e-08
ExecutionTime = 1.71 s  ClockTime = 1 s

Time = 0.045

Courant Number mean: 0.00263248 max: 0.0330565 velocity magnitude: 0.00908719
BiCGStab:  Solving for Ux, Initial residual = 0.00762367, Final residual = 3.36736e-09, No Iterations 1
BiCGStab:  Solving for Uy, Initial residual = 0.00545301, Final residual = 2.6606e-09, No Iterations 1
DICPCG:  Solving for p, Initial residual = 0.0805063, Final residual = 0.00771274, No Iterations 2
time step continuity errors : sum local = 4.52636e-08, global = -7.51134e-10, cumulative = 4.17901e-08
DICPCG:  Solving for p, Initial residual = 0.00848243, Final residual = 0.000847094, No Iterations 129
time step continuity errors : sum local = 4.65865e-09, global = -4.02915e-11, cumulative = 4.17498e-08
ExecutionTime = 1.86 s  ClockTime = 2 s

Time = 0.05

Courant Number mean: 0.00263203 max: 0.0329814 velocity magnitude: 0.00906657
BiCGStab:  Solving for Ux, Initial residual = 0.00628321, Final residual = 2.95086e-09, No Iterations 1
BiCGStab:  Solving for Uy, Initial residual = 0.00464511, Final residual = 2.37559e-09, No Iterations 1
DICPCG:  Solving for p, Initial residual = 0.0708495, Final residual = 0.00657021, No Iterations 2
time step continuity errors : sum local = 3.37821e-08, global = 2.83853e-10, cumulative = 4.20336e-08
DICPCG:  Solving for p, Initial residual = 0.0071505, Final residual = 0.00067322, No Iterations 37
time step continuity errors : sum local = 3.26873e-09, global = 1.75465e-10, cumulative = 4.22091e-08
ExecutionTime = 1.96 s  ClockTime = 2 s

Time = 0.055

Courant Number mean: 0.00263161 max: 0.0328858 velocity magnitude: 0.00904028
BiCGStab:  Solving for Ux, Initial residual = 0.00557243, Final residual = 2.68266e-09, No Iterations 1
BiCGStab:  Solving for Uy, Initial residual = 0.00412237, Final residual = 2.18753e-09, No Iterations 1
DICPCG:  Solving for p, Initial residual = 0.0632494, Final residual = 0.00560898, No Iterations 2
time step continuity errors : sum local = 2.59504e-08, global = 3.93102e-10, cumulative = 4.26022e-08
DICPCG:  Solving for p, Initial residual = 0.00604913, Final residual = 0.000583723, No Iterations 37
time step continuity errors : sum local = 2.56541e-09, global = 2.2199e-10, cumulative = 4.28242e-08
ExecutionTime = 2.05 s  ClockTime = 2 s

Time = 0.06

Courant Number mean: 0.00263121 max: 0.0327727 velocity magnitude: 0.00903814
BiCGStab:  Solving for Ux, Initial residual = 0.00495962, Final residual = 2.45794e-09, No Iterations 1
BiCGStab:  Solving for Uy, Initial residual = 0.00368387, Final residual = 2.01943e-09, No Iterations 1
DICPCG:  Solving for p, Initial residual = 0.0568637, Final residual = 0.00471905, No Iterations 2
time step continuity errors : sum local = 1.98608e-08, global = 2.71719e-10, cumulative = 4.30959e-08
DICPCG:  Solving for p, Initial residual = 0.00505585, Final residual = 0.000475508, No Iterations 37
time step continuity errors : sum local = 1.91156e-09, global = 1.87064e-10, cumulative = 4.3283e-08
ExecutionTime = 2.15 s  ClockTime = 2 s

Time = 0.065

Courant Number mean: 0.00263082 max: 0.0326433 velocity magnitude: 0.00903521
BiCGStab:  Solving for Ux, Initial residual = 0.00449169, Final residual = 2.26895e-09, No Iterations 1
BiCGStab:  Solving for Uy, Initial residual = 0.00334562, Final residual = 1.89643e-09, No Iterations 1
DICPCG:  Solving for p, Initial residual = 0.0518786, Final residual = 0.00417144, No Iterations 2
time step continuity errors : sum local = 1.61211e-08, global = 1.52678e-10, cumulative = 4.34357e-08
DICPCG:  Solving for p, Initial residual = 0.00443441, Final residual = 0.000434552, No Iterations 38
time step continuity errors : sum local = 1.61085e-09, global = 9.22279e-11, cumulative = 4.35279e-08
ExecutionTime = 2.25 s  ClockTime = 2 s

Time = 0.07

Courant Number mean: 0.00263045 max: 0.0324993 velocity magnitude: 0.00902993
BiCGStab:  Solving for Ux, Initial residual = 0.00410843, Final residual = 2.08857e-09, No Iterations 1
BiCGStab:  Solving for Uy, Initial residual = 0.00305077, Final residual = 1.79075e-09, No Iterations 1
DICPCG:  Solving for p, Initial residual = 0.0476012, Final residual = 0.00367391, No Iterations 2
time step continuity errors : sum local = 1.31294e-08, global = -2.25126e-12, cumulative = 4.35256e-08
DICPCG:  Solving for p, Initial residual = 0.00389395, Final residual = 0.000374726, No Iterations 38
time step continuity errors : sum local = 1.28816e-09, global = -5.54099e-11, cumulative = 4.34702e-08
ExecutionTime = 2.35 s  ClockTime = 2 s

Time = 0.075

Courant Number mean: 0.00263008 max: 0.0323425 velocity magnitude: 0.00902233
BiCGStab:  Solving for Ux, Initial residual = 0.00376154, Final residual = 1.93002e-09, No Iterations 1
BiCGStab:  Solving for Uy, Initial residual = 0.00281733, Final residual = 1.7036e-09, No Iterations 1
DICPCG:  Solving for p, Initial residual = 0.0436217, Final residual = 0.00319754, No Iterations 2
time step continuity errors : sum local = 1.06177e-08, global = -2.02504e-10, cumulative = 4.32677e-08
DICPCG:  Solving for p, Initial residual = 0.00337582, Final residual = 0.000331531, No Iterations 124
time step continuity errors : sum local = 1.06149e-09, global = -2.64375e-11, cumulative = 4.32413e-08
ExecutionTime = 2.51 s  ClockTime = 2 s

Time = 0.08

Courant Number mean: 0.00262973 max: 0.0322876 velocity magnitude: 0.00901259
BiCGStab:  Solving for Ux, Initial residual = 0.00334547, Final residual = 1.77995e-09, No Iterations 1
BiCGStab:  Solving for Uy, Initial residual = 0.00263248, Final residual = 1.62605e-09, No Iterations 1
DICPCG:  Solving for p, Initial residual = 0.0413357, Final residual = 0.00298886, No Iterations 2
time step continuity errors : sum local = 9.20792e-09, global = 1.41634e-12, cumulative = 4.32427e-08
DICPCG:  Solving for p, Initial residual = 0.00314749, Final residual = 0.000296726, No Iterations 51
time step continuity errors : sum local = 8.82945e-10, global = -3.165e-11, cumulative = 4.3211e-08
ExecutionTime = 2.6 s  ClockTime = 2 s

Time = 0.085

Courant Number mean: 0.0026294 max: 0.0322452 velocity magnitude: 0.00900075
BiCGStab:  Solving for Ux, Initial residual = 0.00308703, Final residual = 1.64915e-09, No Iterations 1
BiCGStab:  Solving for Uy, Initial residual = 0.00245237, Final residual = 1.54578e-09, No Iterations 1
DICPCG:  Solving for p, Initial residual = 0.0386692, Final residual = 0.00257579, No Iterations 2
time step continuity errors : sum local = 7.42892e-09, global = -3.52258e-11, cumulative = 4.31758e-08
DICPCG:  Solving for p, Initial residual = 0.00271007, Final residual = 0.000267789, No Iterations 37
time step continuity errors : sum local = 7.47251e-10, global = -6.50958e-11, cumulative = 4.31107e-08
ExecutionTime = 2.7 s  ClockTime = 2 s

Time = 0.09

Courant Number mean: 0.00262909 max: 0.0321957 velocity magnitude: 0.00898693
BiCGStab:  Solving for Ux, Initial residual = 0.00287925, Final residual = 1.53797e-09, No Iterations 1
BiCGStab:  Solving for Uy, Initial residual = 0.00231441, Final residual = 1.48052e-09, No Iterations 1
DICPCG:  Solving for p, Initial residual = 0.036263, Final residual = 0.00227117, No Iterations 2
time step continuity errors : sum local = 6.15164e-09, global = -9.83844e-11, cumulative = 4.30123e-08
DICPCG:  Solving for p, Initial residual = 0.0023859, Final residual = 0.000222215, No Iterations 123
time step continuity errors : sum local = 5.833e-10, global = -1.65239e-11, cumulative = 4.29958e-08
ExecutionTime = 2.85 s  ClockTime = 3 s

Time = 0.095

Courant Number mean: 0.00262879 max: 0.0321395 velocity magnitude: 0.00897124
BiCGStab:  Solving for Ux, Initial residual = 0.00260825, Final residual = 1.42972e-09, No Iterations 1
BiCGStab:  Solving for Uy, Initial residual = 0.00217182, Final residual = 1.41429e-09, No Iterations 1
DICPCG:  Solving for p, Initial residual = 0.0343841, Final residual = 0.00206177, No Iterations 2
time step continuity errors : sum local = 5.23774e-09, global = 3.3057e-11, cumulative = 4.30289e-08
DICPCG:  Solving for p, Initial residual = 0.0021628, Final residual = 0.000205348, No Iterations 54
time step continuity errors : sum local = 5.06312e-10, global = 1.72036e-11, cumulative = 4.30461e-08
ExecutionTime = 2.96 s  ClockTime = 3 s

Time = 0.1

Courant Number mean: 0.0026285 max: 0.0320768 velocity magnitude: 0.00895375
BiCGStab:  Solving for Ux, Initial residual = 0.00243819, Final residual = 1.33504e-09, No Iterations 1
BiCGStab:  Solving for Uy, Initial residual = 0.00204804, Final residual = 1.35118e-09, No Iterations 1
DICPCG:  Solving for p, Initial residual = 0.0324118, Final residual = 0.00176291, No Iterations 2
time step continuity errors : sum local = 4.22922e-09, global = 5.11247e-11, cumulative = 4.30972e-08
DICPCG:  Solving for p, Initial residual = 0.00184686, Final residual = 0.000183674, No Iterations 38
time step continuity errors : sum local = 4.28273e-10, global = 2.4188e-11, cumulative = 4.31214e-08
ExecutionTime = 3.05 s  ClockTime = 3 s

Time = 0.105

Courant Number mean: 0.00262821 max: 0.0320082 velocity magnitude: 0.00895089
BiCGStab:  Solving for Ux, Initial residual = 0.00229577, Final residual = 1.25166e-09, No Iterations 1
BiCGStab:  Solving for Uy, Initial residual = 0.00194756, Final residual = 1.29856e-09, No Iterations 1
DICPCG:  Solving for p, Initial residual = 0.0307999, Final residual = 0.00157042, No Iterations 2
time step continuity errors : sum local = 3.56684e-09, global = 3.14454e-11, cumulative = 4.31528e-08
DICPCG:  Solving for p, Initial residual = 0.00164612, Final residual = 0.000164608, No Iterations 38
time step continuity errors : sum local = 3.63833e-10, global = -9.38089e-13, cumulative = 4.31519e-08
ExecutionTime = 3.15 s  ClockTime = 3 s

Time = 0.11

Courant Number mean: 0.00262794 max: 0.0319338 velocity magnitude: 0.00894791
BiCGStab:  Solving for Ux, Initial residual = 0.00215667, Final residual = 1.1733e-09, No Iterations 1
BiCGStab:  Solving for Uy, Initial residual = 0.00183916, Final residual = 1.2439e-09, No Iterations 1
DICPCG:  Solving for p, Initial residual = 0.0294751, Final residual = 0.00133475, No Iterations 2
time step continuity errors : sum local = 2.87625e-09, global = -2.62488e-11, cumulative = 4.31256e-08
DICPCG:  Solving for p, Initial residual = 0.00140022, Final residual = 0.000132821, No Iterations 53
time step continuity errors : sum local = 2.78838e-10, global = -3.5705e-11, cumulative = 4.30899e-08
ExecutionTime = 3.26 s  ClockTime = 3 s

Time = 0.115

Courant Number mean: 0.00262766 max: 0.0318541 velocity magnitude: 0.00894396
BiCGStab:  Solving for Ux, Initial residual = 0.0020373, Final residual = 1.10388e-09, No Iterations 1
BiCGStab:  Solving for Uy, Initial residual = 0.00174782, Final residual = 1.19433e-09, No Iterations 1
DICPCG:  Solving for p, Initial residual = 0.0284619, Final residual = 0.00126789, No Iterations 2
time step continuity errors : sum local = 2.59724e-09, global = -7.0252e-11, cumulative = 4.30197e-08
DICPCG:  Solving for p, Initial residual = 0.00132654, Final residual = 0.000125885, No Iterations 129
time step continuity errors : sum local = 2.51474e-10, global = -3.9365e-12, cumulative = 4.30158e-08
ExecutionTime = 3.42 s  ClockTime = 3 s

Time = 0.12

Courant Number mean: 0.0026274 max: 0.0317697 velocity magnitude: 0.0089391
BiCGStab:  Solving for Ux, Initial residual = 0.00189319, Final residual = 1.0376e-09, No Iterations 1
BiCGStab:  Solving for Uy, Initial residual = 0.00166784, Final residual = 1.14921e-09, No Iterations 1
DICPCG:  Solving for p, Initial residual = 0.0275658, Final residual = 0.00114037, No Iterations 2
time step continuity errors : sum local = 2.21738e-09, global = 2.81156e-11, cumulative = 4.30439e-08
DICPCG:  Solving for p, Initial residual = 0.0011941, Final residual = 0.000116483, No Iterations 49
time step continuity errors : sum local = 2.21073e-10, global = 5.15638e-12, cumulative = 4.3049e-08
ExecutionTime = 3.54 s  ClockTime = 3 s

Time = 0.125

Courant Number mean: 0.00262714 max: 0.0316807 velocity magnitude: 0.0089333
BiCGStab:  Solving for Ux, Initial residual = 0.00179391, Final residual = 9.79827e-10, No Iterations 1
BiCGStab:  Solving for Uy, Initial residual = 0.00159508, Final residual = 1.10617e-09, No Iterations 1
DICPCG:  Solving for p, Initial residual = 0.0266395, Final residual = 0.00104532, No Iterations 2
time step continuity errors : sum local = 1.939e-09, global = 1.46191e-11, cumulative = 4.30636e-08
DICPCG:  Solving for p, Initial residual = 0.00109585, Final residual = 0.000107699, No Iterations 47
time step continuity errors : sum local = 1.9515e-10, global = 3.99838e-13, cumulative = 4.3064e-08
ExecutionTime = 3.65 s  ClockTime = 3 s

Time = 0.13

Courant Number mean: 0.00262689 max: 0.0315876 velocity magnitude: 0.00892662
BiCGStab:  Solving for Ux, Initial residual = 0.00170741, Final residual = 9.30275e-10, No Iterations 1
BiCGStab:  Solving for Uy, Initial residual = 0.00153104, Final residual = 1.06643e-09, No Iterations 1
DICPCG:  Solving for p, Initial residual = 0.0258605, Final residual = 0.000954585, No Iterations 2
time step continuity errors : sum local = 1.69172e-09, global = -4.40065e-12, cumulative = 4.30596e-08
DICPCG:  Solving for p, Initial residual = 0.00100251, Final residual = 9.89127e-05, No Iterations 48
time step continuity errors : sum local = 1.71355e-10, global = -1.73506e-11, cumulative = 4.30423e-08
ExecutionTime = 3.75 s  ClockTime = 4 s

Time = 0.135

Courant Number mean: 0.00262665 max: 0.0314907 velocity magnitude: 0.00891905
BiCGStab:  Solving for Ux, Initial residual = 0.00162764, Final residual = 8.84837e-10, No Iterations 1
BiCGStab:  Solving for Uy, Initial residual = 0.00147025, Final residual = 1.02815e-09, No Iterations 1
DICPCG:  Solving for p, Initial residual = 0.024971, Final residual = 0.000897618, No Iterations 2
time step continuity errors : sum local = 1.52191e-09, global = -3.47721e-11, cumulative = 4.30075e-08
DICPCG:  Solving for p, Initial residual = 0.000946844, Final residual = 9.28287e-05, No Iterations 127
time step continuity errors : sum local = 1.53975e-10, global = -2.92302e-12, cumulative = 4.30046e-08
ExecutionTime = 3.9 s  ClockTime = 4 s

Time = 0.14

Courant Number mean: 0.00262641 max: 0.0314184 velocity magnitude: 0.00891063
BiCGStab:  Solving for Ux, Initial residual = 0.0015406, Final residual = 8.41529e-10, No Iterations 1
BiCGStab:  Solving for Uy, Initial residual = 0.00141527, Final residual = 9.92603e-10, No Iterations 1
DICPCG:  Solving for p, Initial residual = 0.0243201, Final residual = 0.000892372, No Iterations 2
time step continuity errors : sum local = 1.4467e-09, global = 1.17272e-11, cumulative = 4.30163e-08
DICPCG:  Solving for p, Initial residual = 0.000938905, Final residual = 9.11952e-05, No Iterations 48
time step continuity errors : sum local = 1.4473e-10, global = -3.54954e-12, cumulative = 4.30128e-08
ExecutionTime = 4 s  ClockTime = 4 s

Time = 0.145

Courant Number mean: 0.00262617 max: 0.0313859 velocity magnitude: 0.0089014
BiCGStab:  Solving for Ux, Initial residual = 0.0014862, Final residual = 8.03071e-10, No Iterations 1
BiCGStab:  Solving for Uy, Initial residual = 0.00136535, Final residual = 9.59133e-10, No Iterations 1
DICPCG:  Solving for p, Initial residual = 0.0235542, Final residual = 0.00086582, No Iterations 2
time step continuity errors : sum local = 1.34737e-09, global = -4.10585e-12, cumulative = 4.30087e-08
DICPCG:  Solving for p, Initial residual = 0.000910696, Final residual = 8.61615e-05, No Iterations 49
time step continuity errors : sum local = 1.31425e-10, global = -1.35712e-11, cumulative = 4.29951e-08
ExecutionTime = 4.1 s  ClockTime = 4 s

Time = 0.15

Courant Number mean: 0.00262594 max: 0.0313506 velocity magnitude: 0.00889138
BiCGStab:  Solving for Ux, Initial residual = 0.00144617, Final residual = 7.67272e-10, No Iterations 1
BiCGStab:  Solving for Uy, Initial residual = 0.00131852, Final residual = 9.27512e-10, No Iterations 1
DICPCG:  Solving for p, Initial residual = 0.0227954, Final residual = 0.00083058, No Iterations 2
time step continuity errors : sum local = 1.24417e-09, global = -2.35717e-11, cumulative = 4.29715e-08
DICPCG:  Solving for p, Initial residual = 0.0008736, Final residual = 8.50969e-05, No Iterations 125
time step continuity errors : sum local = 1.25141e-10, global = -1.0245e-12, cumulative = 4.29705e-08
ExecutionTime = 4.34 s  ClockTime = 4 s

Time = 0.155

Courant Number mean: 0.00262572 max: 0.0313125 velocity magnitude: 0.0088806
BiCGStab:  Solving for Ux, Initial residual = 0.00139571, Final residual = 7.32969e-10, No Iterations 1
BiCGStab:  Solving for Uy, Initial residual = 0.00127545, Final residual = 8.97432e-10, No Iterations 1
DICPCG:  Solving for p, Initial residual = 0.0221011, Final residual = 0.000853382, No Iterations 2
time step continuity errors : sum local = 1.23154e-09, global = 1.15981e-11, cumulative = 4.29821e-08
DICPCG:  Solving for p, Initial residual = 0.000895823, Final residual = 8.47293e-05, No Iterations 44
time step continuity errors : sum local = 1.20141e-10, global = -9.89666e-13, cumulative = 4.29811e-08
ExecutionTime = 4.46 s  ClockTime = 4 s

Time = 0.16

Courant Number mean: 0.0026255 max: 0.0312719 velocity magnitude: 0.00886909
BiCGStab:  Solving for Ux, Initial residual = 0.00135946, Final residual = 7.0244e-10, No Iterations 1
BiCGStab:  Solving for Uy, Initial residual = 0.00123845, Final residual = 8.70099e-10, No Iterations 1
DICPCG:  Solving for p, Initial residual = 0.0213625, Final residual = 0.000840879, No Iterations 2
time step continuity errors : sum local = 1.17263e-09, global = -9.16471e-13, cumulative = 4.29802e-08
DICPCG:  Solving for p, Initial residual = 0.000882536, Final residual = 8.71976e-05, No Iterations 48
time step continuity errors : sum local = 1.19552e-10, global = -8.523e-12, cumulative = 4.29717e-08
ExecutionTime = 4.62 s  ClockTime = 4 s

Time = 0.165

Courant Number mean: 0.00262528 max: 0.0312289 velocity magnitude: 0.00885807
BiCGStab:  Solving for Ux, Initial residual = 0.00132519, Final residual = 6.73817e-10, No Iterations 1
BiCGStab:  Solving for Uy, Initial residual = 0.00120024, Final residual = 8.43027e-10, No Iterations 1
DICPCG:  Solving for p, Initial residual = 0.0206516, Final residual = 0.000845811, No Iterations 2
time step continuity errors : sum local = 1.14107e-09, global = -1.6094e-11, cumulative = 4.29556e-08
DICPCG:  Solving for p, Initial residual = 0.000886818, Final residual = 8.54406e-05, No Iterations 124
time step continuity errors : sum local = 1.13384e-10, global = -1.72878e-12, cumulative = 4.29539e-08
ExecutionTime = 4.85 s  ClockTime = 5 s

Time = 0.17

Courant Number mean: 0.00262507 max: 0.0311834 velocity magnitude: 0.00885571
BiCGStab:  Solving for Ux, Initial residual = 0.00128361, Final residual = 6.46148e-10, No Iterations 1
BiCGStab:  Solving for Uy, Initial residual = 0.0011664, Final residual = 8.17911e-10, No Iterations 1
DICPCG:  Solving for p, Initial residual = 0.0200389, Final residual = 0.00085604, No Iterations 2
time step continuity errors : sum local = 1.11711e-09, global = 5.30897e-12, cumulative = 4.29592e-08
DICPCG:  Solving for p, Initial residual = 0.000895921, Final residual = 8.74832e-05, No Iterations 43
time step continuity errors : sum local = 1.12356e-10, global = -4.66342e-12, cumulative = 4.29545e-08
ExecutionTime = 5.06 s  ClockTime = 5 s

Time = 0.175

Courant Number mean: 0.00262486 max: 0.0311357 velocity magnitude: 0.0088529
BiCGStab:  Solving for Ux, Initial residual = 0.00125265, Final residual = 6.21297e-10, No Iterations 1
BiCGStab:  Solving for Uy, Initial residual = 0.00113694, Final residual = 7.94951e-10, No Iterations 1
DICPCG:  Solving for p, Initial residual = 0.0193575, Final residual = 0.000847335, No Iterations 2
time step continuity errors : sum local = 1.07214e-09, global = -7.59611e-12, cumulative = 4.29469e-08
DICPCG:  Solving for p, Initial residual = 0.000886538, Final residual = 8.74856e-05, No Iterations 51
time step continuity errors : sum local = 1.09024e-10, global = -1.28285e-11, cumulative = 4.29341e-08
ExecutionTime = 5.26 s  ClockTime = 5 s

Time = 0.18

Courant Number mean: 0.00262465 max: 0.0310859 velocity magnitude: 0.00884965
BiCGStab:  Solving for Ux, Initial residual = 0.00122268, Final residual = 5.97943e-10, No Iterations 1
BiCGStab:  Solving for Uy, Initial residual = 0.00110503, Final residual = 7.71779e-10, No Iterations 1
DICPCG:  Solving for p, Initial residual = 0.0187486, Final residual = 0.000860467, No Iterations 2
time step continuity errors : sum local = 1.05687e-09, global = -2.09694e-11, cumulative = 4.29131e-08
DICPCG:  Solving for p, Initial residual = 0.000898083, Final residual = 8.57209e-05, No Iterations 123
time step continuity errors : sum local = 1.03741e-10, global = -1.08879e-12, cumulative = 4.2912e-08
ExecutionTime = 5.44 s  ClockTime = 5 s

Time = 0.185

Courant Number mean: 0.00262445 max: 0.031034 velocity magnitude: 0.00884597
BiCGStab:  Solving for Ux, Initial residual = 0.00118398, Final residual = 5.74845e-10, No Iterations 1
BiCGStab:  Solving for Uy, Initial residual = 0.00107783, Final residual = 7.50595e-10, No Iterations 1
DICPCG:  Solving for p, Initial residual = 0.0181965, Final residual = 0.000866077, No Iterations 2
time step continuity errors : sum local = 1.03185e-09, global = 1.07931e-11, cumulative = 4.29228e-08
DICPCG:  Solving for p, Initial residual = 0.00090415, Final residual = 9.02199e-05, No Iterations 39
time step continuity errors : sum local = 1.05951e-10, global = 2.55312e-12, cumulative = 4.29254e-08
ExecutionTime = 5.58 s  ClockTime = 5 s

Time = 0.19

Courant Number mean: 0.00262425 max: 0.0309803 velocity magnitude: 0.00884185
BiCGStab:  Solving for Ux, Initial residual = 0.00115719, Final residual = 5.54392e-10, No Iterations 1
BiCGStab:  Solving for Uy, Initial residual = 0.00105359, Final residual = 7.31104e-10, No Iterations 1
DICPCG:  Solving for p, Initial residual = 0.0176113, Final residual = 0.000864382, No Iterations 2
time step continuity errors : sum local = 1.00128e-09, global = 6.1518e-12, cumulative = 4.29315e-08
DICPCG:  Solving for p, Initial residual = 0.000901198, Final residual = 8.91317e-05, No Iterations 40
time step continuity errors : sum local = 1.01808e-10, global = -2.68124e-13, cumulative = 4.29312e-08
ExecutionTime = 5.68 s  ClockTime = 5 s

Time = 0.195

Courant Number mean: 0.00262406 max: 0.0309247 velocity magnitude: 0.00883731
BiCGStab:  Solving for Ux, Initial residual = 0.00113125, Final residual = 5.34878e-10, No Iterations 1
BiCGStab:  Solving for Uy, Initial residual = 0.00102653, Final residual = 7.11178e-10, No Iterations 1
DICPCG:  Solving for p, Initial residual = 0.0170481, Final residual = 0.000846934, No Iterations 2
time step continuity errors : sum local = 9.54511e-10, global = -3.02392e-12, cumulative = 4.29282e-08
DICPCG:  Solving for p, Initial residual = 0.00088288, Final residual = 8.69082e-05, No Iterations 51
time step continuity errors : sum local = 9.66096e-11, global = -5.23272e-12, cumulative = 4.2923e-08
ExecutionTime = 5.82 s  ClockTime = 6 s

Time = 0.2

Courant Number mean: 0.00262386 max: 0.0308674 velocity magnitude: 0.00883235
BiCGStab:  Solving for Ux, Initial residual = 0.00110488, Final residual = 5.16519e-10, No Iterations 1
BiCGStab:  Solving for Uy, Initial residual = 0.0010013, Final residual = 6.92363e-10, No Iterations 1
DICPCG:  Solving for p, Initial residual = 0.0165796, Final residual = 0.000877497, No Iterations 2
time step continuity errors : sum local = 9.62714e-10, global = -1.01675e-11, cumulative = 4.29128e-08
DICPCG:  Solving for p, Initial residual = 0.000912786, Final residual = 9.02492e-05, No Iterations 51
time step continuity errors : sum local = 9.76875e-11, global = -1.43291e-11, cumulative = 4.28985e-08
ExecutionTime = 6 s  ClockTime = 6 s

Time = 0.205

Courant Number mean: 0.00262367 max: 0.0308085 velocity magnitude: 0.00882698
BiCGStab:  Solving for Ux, Initial residual = 0.00107981, Final residual = 4.99009e-10, No Iterations 1
BiCGStab:  Solving for Uy, Initial residual = 0.000980047, Final residual = 6.75372e-10, No Iterations 1
DICPCG:  Solving for p, Initial residual = 0.0159741, Final residual = 0.000852134, No Iterations 2
time step continuity errors : sum local = 9.10572e-10, global = -2.33754e-11, cumulative = 4.28751e-08
DICPCG:  Solving for p, Initial residual = 0.000886228, Final residual = 7.72319e-05, No Iterations 123
time step continuity errors : sum local = 8.14491e-11, global = -8.6247e-13, cumulative = 4.28743e-08
ExecutionTime = 6.18 s  ClockTime = 6 s

Time = 0.21

Courant Number mean: 0.00262349 max: 0.030748 velocity magnitude: 0.00882122
BiCGStab:  Solving for Ux, Initial residual = 0.0010481, Final residual = 4.82e-10, No Iterations 1
BiCGStab:  Solving for Uy, Initial residual = 0.000958674, Final residual = 6.58891e-10, No Iterations 1
DICPCG:  Solving for p, Initial residual = 0.0155868, Final residual = 0.000889821, No Iterations 2
time step continuity errors : sum local = 9.24881e-10, global = 1.28546e-11, cumulative = 4.28871e-08
DICPCG:  Solving for p, Initial residual = 0.000924122, Final residual = 9.09778e-05, No Iterations 39
time step continuity errors : sum local = 9.33441e-11, global = 6.54677e-12, cumulative = 4.28937e-08
ExecutionTime = 6.34 s  ClockTime = 6 s

Time = 0.215

Courant Number mean: 0.0026233 max: 0.0306861 velocity magnitude: 0.00881509
BiCGStab:  Solving for Ux, Initial residual = 0.00102645, Final residual = 4.66662e-10, No Iterations 1
BiCGStab:  Solving for Uy, Initial residual = 0.000939987, Final residual = 6.43719e-10, No Iterations 1
DICPCG:  Solving for p, Initial residual = 0.0151705, Final residual = 0.000874672, No Iterations 2
time step continuity errors : sum local = 8.86445e-10, global = 1.39278e-11, cumulative = 4.29076e-08
DICPCG:  Solving for p, Initial residual = 0.000908328, Final residual = 8.70683e-05, No Iterations 66
time step continuity errors : sum local = 8.71238e-11, global = 1.14215e-11, cumulative = 4.2919e-08
ExecutionTime = 6.51 s  ClockTime = 6 s

Time = 0.22

Courant Number mean: 0.00262312 max: 0.0306229 velocity magnitude: 0.00880858
BiCGStab:  Solving for Ux, Initial residual = 0.0010044, Final residual = 4.51858e-10, No Iterations 1
BiCGStab:  Solving for Uy, Initial residual = 0.000917277, Final residual = 6.27588e-10, No Iterations 1
DICPCG:  Solving for p, Initial residual = 0.0147626, Final residual = 0.000891126, No Iterations 2
time step continuity errors : sum local = 8.81064e-10, global = 1.63838e-11, cumulative = 4.29354e-08
DICPCG:  Solving for p, Initial residual = 0.000924047, Final residual = 8.30387e-05, No Iterations 43
time step continuity errors : sum local = 8.10785e-11, global = 8.3407e-12, cumulative = 4.29437e-08
ExecutionTime = 6.66 s  ClockTime = 6 s

Time = 0.225

Courant Number mean: 0.00262294 max: 0.0305585 velocity magnitude: 0.00880171
BiCGStab:  Solving for Ux, Initial residual = 0.000984594, Final residual = 4.3803e-10, No Iterations 1
BiCGStab:  Solving for Uy, Initial residual = 0.000902322, Final residual = 6.14174e-10, No Iterations 1
DICPCG:  Solving for p, Initial residual = 0.014355, Final residual = 0.000872247, No Iterations 2
time step continuity errors : sum local = 8.41657e-10, global = 5.20382e-12, cumulative = 4.29489e-08
DICPCG:  Solving for p, Initial residual = 0.000905384, Final residual = 8.98558e-05, No Iterations 40
time step continuity errors : sum local = 8.56442e-11, global = 1.73958e-12, cumulative = 4.29507e-08
ExecutionTime = 6.78 s  ClockTime = 7 s

Time = 0.23

Courant Number mean: 0.00262277 max: 0.0304999 velocity magnitude: 0.00879448
BiCGStab:  Solving for Ux, Initial residual = 0.000964943, Final residual = 4.24801e-10, No Iterations 1
BiCGStab:  Solving for Uy, Initial residual = 0.000884263, Final residual = 6.00309e-10, No Iterations 1
DICPCG:  Solving for p, Initial residual = 0.0140062, Final residual = 0.000863028, No Iterations 2
time step continuity errors : sum local = 8.13069e-10, global = -4.80402e-12, cumulative = 4.29459e-08
DICPCG:  Solving for p, Initial residual = 0.000894651, Final residual = 8.53569e-05, No Iterations 52
time step continuity errors : sum local = 7.94472e-11, global = -5.49029e-12, cumulative = 4.29404e-08
ExecutionTime = 6.9 s  ClockTime = 7 s

Time = 0.235

Courant Number mean: 0.00262259 max: 0.0304737 velocity magnitude: 0.00878691
BiCGStab:  Solving for Ux, Initial residual = 0.000944887, Final residual = 4.12187e-10, No Iterations 1
BiCGStab:  Solving for Uy, Initial residual = 0.000865771, Final residual = 5.86665e-10, No Iterations 1
DICPCG:  Solving for p, Initial residual = 0.0136797, Final residual = 0.000877915, No Iterations 2
time step continuity errors : sum local = 8.07812e-10, global = -1.27452e-11, cumulative = 4.29276e-08
DICPCG:  Solving for p, Initial residual = 0.000909778, Final residual = 8.69059e-05, No Iterations 121
time step continuity errors : sum local = 7.90177e-11, global = -7.13659e-13, cumulative = 4.29269e-08
ExecutionTime = 7.07 s  ClockTime = 7 s

Time = 0.24

Courant Number mean: 0.00262242 max: 0.0304462 velocity magnitude: 0.00877899
BiCGStab:  Solving for Ux, Initial residual = 0.000921271, Final residual = 3.99582e-10, No Iterations 1
BiCGStab:  Solving for Uy, Initial residual = 0.000851316, Final residual = 5.74713e-10, No Iterations 1
DICPCG:  Solving for p, Initial residual = 0.0133574, Final residual = 0.000868483, No Iterations 2
time step continuity errors : sum local = 7.79825e-10, global = 4.02915e-12, cumulative = 4.29309e-08
DICPCG:  Solving for p, Initial residual = 0.000899713, Final residual = 8.46131e-05, No Iterations 38
time step continuity errors : sum local = 7.50881e-11, global = -2.48372e-13, cumulative = 4.29307e-08
ExecutionTime = 7.18 s  ClockTime = 7 s

Time = 0.245

Courant Number mean: 0.00262225 max: 0.0304176 velocity magnitude: 0.00877075
BiCGStab:  Solving for Ux, Initial residual = 0.000904508, Final residual = 3.88388e-10, No Iterations 1
BiCGStab:  Solving for Uy, Initial residual = 0.000837437, Final residual = 5.63368e-10, No Iterations 1
DICPCG:  Solving for p, Initial residual = 0.0130428, Final residual = 0.000857675, No Iterations 2
time step continuity errors : sum local = 7.52753e-10, global = 3.18518e-13, cumulative = 4.2931e-08
DICPCG:  Solving for p, Initial residual = 0.000888088, Final residual = 8.33517e-05, No Iterations 39
time step continuity errors : sum local = 7.23142e-11, global = -3.34264e-12, cumulative = 4.29277e-08
ExecutionTime = 7.29 s  ClockTime = 7 s

Time = 0.25

Courant Number mean: 0.00262208 max: 0.0303879 velocity magnitude: 0.00876219
BiCGStab:  Solving for Ux, Initial residual = 0.000887492, Final residual = 3.77401e-10, No Iterations 1
BiCGStab:  Solving for Uy, Initial residual = 0.00082155, Final residual = 5.51651e-10, No Iterations 1
DICPCG:  Solving for p, Initial residual = 0.0127601, Final residual = 0.000833748, No Iterations 2
time step continuity errors : sum local = 7.15516e-10, global = -6.44896e-12, cumulative = 4.29212e-08
DICPCG:  Solving for p, Initial residual = 0.000863565, Final residual = 8.56346e-05, No Iterations 48
time step continuity errors : sum local = 7.26594e-11, global = -7.17929e-12, cumulative = 4.2914e-08
ExecutionTime = 7.41 s  ClockTime = 7 s

Time = 0.255

Courant Number mean: 0.00262192 max: 0.0303572 velocity magnitude: 0.00875757
BiCGStab:  Solving for Ux, Initial residual = 0.000869935, Final residual = 3.66915e-10, No Iterations 1
BiCGStab:  Solving for Uy, Initial residual = 0.000806712, Final residual = 5.4062e-10, No Iterations 1
DICPCG:  Solving for p, Initial residual = 0.0125391, Final residual = 0.000849922, No Iterations 2
time step continuity errors : sum local = 7.13444e-10, global = -1.09696e-11, cumulative = 4.29031e-08
DICPCG:  Solving for p, Initial residual = 0.000879504, Final residual = 8.74252e-05, No Iterations 53
time step continuity errors : sum local = 7.25675e-11, global = -1.20664e-11, cumulative = 4.2891e-08
ExecutionTime = 7.53 s  ClockTime = 7 s

Time = 0.26

Courant Number mean: 0.00262175 max: 0.0303255 velocity magnitude: 0.00875523
BiCGStab:  Solving for Ux, Initial residual = 0.000853154, Final residual = 3.56797e-10, No Iterations 1
BiCGStab:  Solving for Uy, Initial residual = 0.000793738, Final residual = 5.30561e-10, No Iterations 1
DICPCG:  Solving for p, Initial residual = 0.0123365, Final residual = 0.000846257, No Iterations 2
time step continuity errors : sum local = 6.9502e-10, global = -1.69568e-11, cumulative = 4.28741e-08
DICPCG:  Solving for p, Initial residual = 0.000874492, Final residual = 8.21151e-05, No Iterations 121
time step continuity errors : sum local = 6.66983e-11, global = -4.77382e-13, cumulative = 4.28736e-08
ExecutionTime = 7.8 s  ClockTime = 8 s

Time = 0.265

Courant Number mean: 0.00262159 max: 0.0302927 velocity magnitude: 0.00875269
BiCGStab:  Solving for Ux, Initial residual = 0.000832844, Final residual = 3.46953e-10, No Iterations 1
BiCGStab:  Solving for Uy, Initial residual = 0.000782088, Final residual = 5.21294e-10, No Iterations 1
DICPCG:  Solving for p, Initial residual = 0.0121362, Final residual = 0.000844292, No Iterations 2
time step continuity errors : sum local = 6.77616e-10, global = 1.11096e-11, cumulative = 4.28847e-08
DICPCG:  Solving for p, Initial residual = 0.000872597, Final residual = 8.56389e-05, No Iterations 39
time step continuity errors : sum local = 6.7986e-11, global = 7.33269e-12, cumulative = 4.2892e-08
ExecutionTime = 7.92 s  ClockTime = 8 s

Time = 0.27

Courant Number mean: 0.00262143 max: 0.0302591 velocity magnitude: 0.00874993
BiCGStab:  Solving for Ux, Initial residual = 0.000818282, Final residual = 3.37885e-10, No Iterations 1
BiCGStab:  Solving for Uy, Initial residual = 0.000770615, Final residual = 5.12313e-10, No Iterations 1
DICPCG:  Solving for p, Initial residual = 0.0119504, Final residual = 0.000817117, No Iterations 2
time step continuity errors : sum local = 6.42052e-10, global = 1.51918e-11, cumulative = 4.29072e-08
DICPCG:  Solving for p, Initial residual = 0.000844392, Final residual = 8.40324e-05, No Iterations 116
time step continuity errors : sum local = 6.53216e-11, global = 1.03649e-13, cumulative = 4.29073e-08
ExecutionTime = 8.15 s  ClockTime = 8 s

Time = 0.275

Courant Number mean: 0.00262127 max: 0.0302244 velocity magnitude: 0.00874693
BiCGStab:  Solving for Ux, Initial residual = 0.000806705, Final residual = 3.29523e-10, No Iterations 1
BiCGStab:  Solving for Uy, Initial residual = 0.000756734, Final residual = 5.02649e-10, No Iterations 1
DICPCG:  Solving for p, Initial residual = 0.0117728, Final residual = 0.000801399, No Iterations 2
time step continuity errors : sum local = 6.17474e-10, global = -7.24679e-12, cumulative = 4.29001e-08
DICPCG:  Solving for p, Initial residual = 0.000828197, Final residual = 7.91803e-05, No Iterations 44
time step continuity errors : sum local = 6.03624e-11, global = -9.96814e-12, cumulative = 4.28901e-08
ExecutionTime = 8.29 s  ClockTime = 8 s

Time = 0.28

Courant Number mean: 0.00262112 max: 0.030189 velocity magnitude: 0.00874371
BiCGStab:  Solving for Ux, Initial residual = 0.000793104, Final residual = 3.21304e-10, No Iterations 1
BiCGStab:  Solving for Uy, Initial residual = 0.000746669, Final residual = 4.94465e-10, No Iterations 1
DICPCG:  Solving for p, Initial residual = 0.0115425, Final residual = 0.000794324, No Iterations 2
time step continuity errors : sum local = 5.99534e-10, global = -2.00151e-11, cumulative = 4.28701e-08
DICPCG:  Solving for p, Initial residual = 0.000820642, Final residual = 8.19732e-05, No Iterations 122
time step continuity errors : sum local = 6.1226e-11, global = -9.37071e-13, cumulative = 4.28691e-08
ExecutionTime = 8.47 s  ClockTime = 8 s

Time = 0.285

Courant Number mean: 0.00262096 max: 0.0301528 velocity magnitude: 0.00874029
BiCGStab:  Solving for Ux, Initial residual = 0.000773806, Final residual = 3.12947e-10, No Iterations 1
BiCGStab:  Solving for Uy, Initial residual = 0.000735379, Final residual = 4.86262e-10, No Iterations 1
DICPCG:  Solving for p, Initial residual = 0.0113702, Final residual = 0.000803537, No Iterations 2
time step continuity errors : sum local = 5.93906e-10, global = 8.13998e-12, cumulative = 4.28773e-08
DICPCG:  Solving for p, Initial residual = 0.000828811, Final residual = 8.28277e-05, No Iterations 53
time step continuity errors : sum local = 6.05879e-11, global = 5.43864e-12, cumulative = 4.28827e-08
ExecutionTime = 8.59 s  ClockTime = 8 s

Time = 0.29

Courant Number mean: 0.00262081 max: 0.0301157 velocity magnitude: 0.00873666
BiCGStab:  Solving for Ux, Initial residual = 0.000760972, Final residual = 3.05347e-10, No Iterations 1
BiCGStab:  Solving for Uy, Initial residual = 0.000724605, Final residual = 4.78316e-10, No Iterations 1
DICPCG:  Solving for p, Initial residual = 0.0111911, Final residual = 0.000771109, No Iterations 2
time step continuity errors : sum local = 5.5858e-10, global = 1.18259e-11, cumulative = 4.28946e-08
DICPCG:  Solving for p, Initial residual = 0.000795131, Final residual = 7.7871e-05, No Iterations 122
time step continuity errors : sum local = 5.58345e-11, global = 6.17033e-14, cumulative = 4.28946e-08
ExecutionTime = 8.79 s  ClockTime = 9 s

Time = 0.295

Courant Number mean: 0.00262066 max: 0.0300779 velocity magnitude: 0.00873283
BiCGStab:  Solving for Ux, Initial residual = 0.000750224, Final residual = 2.98245e-10, No Iterations 1
BiCGStab:  Solving for Uy, Initial residual = 0.000715256, Final residual = 4.70906e-10, No Iterations 1
DICPCG:  Solving for p, Initial residual = 0.0110291, Final residual = 0.000755798, No Iterations 2
time step continuity errors : sum local = 5.36721e-10, global = -5.43924e-12, cumulative = 4.28892e-08
DICPCG:  Solving for p, Initial residual = 0.000780744, Final residual = 7.51277e-05, No Iterations 72
time step continuity errors : sum local = 5.28202e-11, global = -5.15379e-12, cumulative = 4.2884e-08
ExecutionTime = 8.92 s  ClockTime = 9 s

Time = 0.3

Courant Number mean: 0.00262051 max: 0.0300393 velocity magnitude: 0.00872879
BiCGStab:  Solving for Ux, Initial residual = 0.000737548, Final residual = 2.91139e-10, No Iterations 1
BiCGStab:  Solving for Uy, Initial residual = 0.000704413, Final residual = 4.63297e-10, No Iterations 1
DICPCG:  Solving for p, Initial residual = 0.010817, Final residual = 0.000745431, No Iterations 2
time step continuity errors : sum local = 5.19188e-10, global = -1.03353e-11, cumulative = 4.28737e-08
DICPCG:  Solving for p, Initial residual = 0.000767849, Final residual = 7.13259e-05, No Iterations 124
time step continuity errors : sum local = 4.9194e-11, global = -1.11162e-12, cumulative = 4.28726e-08
ExecutionTime = 9.1 s  ClockTime = 9 s

Time = 0.305

Courant Number mean: 0.00262036 max: 0.0300001 velocity magnitude: 0.00872456
BiCGStab:  Solving for Ux, Initial residual = 0.000723219, Final residual = 2.84307e-10, No Iterations 1
BiCGStab:  Solving for Uy, Initial residual = 0.000695283, Final residual = 4.56434e-10, No Iterations 1
DICPCG:  Solving for p, Initial residual = 0.0106399, Final residual = 0.00074194, No Iterations 2
time step continuity errors : sum local = 5.0744e-10, global = 3.08152e-12, cumulative = 4.28757e-08
DICPCG:  Solving for p, Initial residual = 0.000764255, Final residual = 7.31964e-05, No Iterations 53
time step continuity errors : sum local = 4.95824e-11, global = 2.80055e-12, cumulative = 4.28785e-08
ExecutionTime = 9.23 s  ClockTime = 9 s

Time = 0.31

Courant Number mean: 0.00262021 max: 0.0299602 velocity magnitude: 0.00872013
BiCGStab:  Solving for Ux, Initial residual = 0.000710966, Final residual = 2.77692e-10, No Iterations 1
BiCGStab:  Solving for Uy, Initial residual = 0.000685257, Final residual = 4.49366e-10, No Iterations 1
DICPCG:  Solving for p, Initial residual = 0.010484, Final residual = 0.000716885, No Iterations 2
time step continuity errors : sum local = 4.81251e-10, global = 6.6451e-12, cumulative = 4.28851e-08
DICPCG:  Solving for p, Initial residual = 0.000738065, Final residual = 7.24644e-05, No Iterations 48
time step continuity errors : sum local = 4.8188e-11, global = 4.79783e-12, cumulative = 4.28899e-08
ExecutionTime = 9.34 s  ClockTime = 9 s

Time = 0.315

Courant Number mean: 0.00262007 max: 0.0299196 velocity magnitude: 0.00871552
BiCGStab:  Solving for Ux, Initial residual = 0.000699618, Final residual = 2.71442e-10, No Iterations 1
BiCGStab:  Solving for Uy, Initial residual = 0.000676943, Final residual = 4.42994e-10, No Iterations 1
DICPCG:  Solving for p, Initial residual = 0.0103264, Final residual = 0.000701797, No Iterations 2
time step continuity errors : sum local = 4.62566e-10, global = 6.77856e-12, cumulative = 4.28967e-08
DICPCG:  Solving for p, Initial residual = 0.000722753, Final residual = 7.20456e-05, No Iterations 48
time step continuity errors : sum local = 4.70463e-11, global = 5.14902e-12, cumulative = 4.29018e-08
ExecutionTime = 9.47 s  ClockTime = 9 s

Time = 0.32

Courant Number mean: 0.00261992 max: 0.0298785 velocity magnitude: 0.00871073
BiCGStab:  Solving for Ux, Initial residual = 0.00068883, Final residual = 2.65431e-10, No Iterations 1
BiCGStab:  Solving for Uy, Initial residual = 0.000667542, Final residual = 4.36428e-10, No Iterations 1
DICPCG:  Solving for p, Initial residual = 0.0101271, Final residual = 0.000669231, No Iterations 2
time step continuity errors : sum local = 4.33196e-10, global = 5.51263e-12, cumulative = 4.29073e-08
DICPCG:  Solving for p, Initial residual = 0.000689475, Final residual = 6.68902e-05, No Iterations 51
time step continuity errors : sum local = 4.29023e-11, global = 3.912e-12, cumulative = 4.29113e-08
ExecutionTime = 9.59 s  ClockTime = 9 s

Time = 0.325

Courant Number mean: 0.00261978 max: 0.0298367 velocity magnitude: 0.00870575
BiCGStab:  Solving for Ux, Initial residual = 0.000678118, Final residual = 2.59642e-10, No Iterations 1
BiCGStab:  Solving for Uy, Initial residual = 0.000658711, Final residual = 4.30182e-10, No Iterations 1
DICPCG:  Solving for p, Initial residual = 0.0099989, Final residual = 0.000671253, No Iterations 2
time step continuity errors : sum local = 4.26828e-10, global = 2.65904e-12, cumulative = 4.29139e-08
DICPCG:  Solving for p, Initial residual = 0.000690747, Final residual = 6.78377e-05, No Iterations 43
time step continuity errors : sum local = 4.27466e-11, global = 9.96816e-13, cumulative = 4.29149e-08
ExecutionTime = 9.71 s  ClockTime = 9 s

Time = 0.33

Courant Number mean: 0.00261964 max: 0.0297944 velocity magnitude: 0.0087006
BiCGStab:  Solving for Ux, Initial residual = 0.000668011, Final residual = 2.54079e-10, No Iterations 1
BiCGStab:  Solving for Uy, Initial residual = 0.000650864, Final residual = 4.24398e-10, No Iterations 1
DICPCG:  Solving for p, Initial residual = 0.00985408, Final residual = 0.000661256, No Iterations 2
time step continuity errors : sum local = 4.13151e-10, global = -1.89656e-12, cumulative = 4.2913e-08
DICPCG:  Solving for p, Initial residual = 0.000680666, Final residual = 6.68804e-05, No Iterations 45
time step continuity errors : sum local = 4.14146e-11, global = -2.71559e-12, cumulative = 4.29103e-08
ExecutionTime = 9.84 s  ClockTime = 10 s

Time = 0.335

Courant Number mean: 0.0026195 max: 0.0297516 velocity magnitude: 0.00869527
BiCGStab:  Solving for Ux, Initial residual = 0.000657797, Final residual = 2.4867e-10, No Iterations 1
BiCGStab:  Solving for Uy, Initial residual = 0.000641974, Final residual = 4.18441e-10, No Iterations 1
DICPCG:  Solving for p, Initial residual = 0.00973012, Final residual = 0.000638994, No Iterations 2
time step continuity errors : sum local = 3.92385e-10, global = -6.43867e-12, cumulative = 4.29039e-08
DICPCG:  Solving for p, Initial residual = 0.000657761, Final residual = 6.26413e-05, No Iterations 121
time step continuity errors : sum local = 3.81271e-11, global = -6.86073e-13, cumulative = 4.29032e-08
ExecutionTime = 10.02 s  ClockTime = 10 s

Time = 0.34

Courant Number mean: 0.00261936 max: 0.0297083 velocity magnitude: 0.00868978
BiCGStab:  Solving for Ux, Initial residual = 0.000646006, Final residual = 2.43321e-10, No Iterations 1
BiCGStab:  Solving for Uy, Initial residual = 0.000633695, Final residual = 4.12891e-10, No Iterations 1
DICPCG:  Solving for p, Initial residual = 0.00957494, Final residual = 0.000642042, No Iterations 2
time step continuity errors : sum local = 3.87853e-10, global = 1.34789e-12, cumulative = 4.29045e-08
DICPCG:  Solving for p, Initial residual = 0.000660547, Final residual = 6.33082e-05, No Iterations 39
time step continuity errors : sum local = 3.7912e-11, global = -3.78235e-13, cumulative = 4.29041e-08
ExecutionTime = 10.12 s  ClockTime = 10 s

Time = 0.345

Courant Number mean: 0.00261922 max: 0.0296645 velocity magnitude: 0.00868412
BiCGStab:  Solving for Ux, Initial residual = 0.000637209, Final residual = 2.38437e-10, No Iterations 1
BiCGStab:  Solving for Uy, Initial residual = 0.000626785, Final residual = 4.07945e-10, No Iterations 1
DICPCG:  Solving for p, Initial residual = 0.00944173, Final residual = 0.000621745, No Iterations 2
time step continuity errors : sum local = 3.69288e-10, global = -5.41437e-14, cumulative = 4.29041e-08
DICPCG:  Solving for p, Initial residual = 0.000639429, Final residual = 6.37696e-05, No Iterations 45
time step continuity errors : sum local = 3.75512e-11, global = -1.52184e-12, cumulative = 4.29026e-08
ExecutionTime = 10.23 s  ClockTime = 10 s

Time = 0.35

Courant Number mean: 0.00261909 max: 0.0296203 velocity magnitude: 0.0086783
BiCGStab:  Solving for Ux, Initial residual = 0.000627927, Final residual = 2.33606e-10, No Iterations 1
BiCGStab:  Solving for Uy, Initial residual = 0.000618435, Final residual = 4.02556e-10, No Iterations 1
DICPCG:  Solving for p, Initial residual = 0.00932549, Final residual = 0.000615854, No Iterations 2
time step continuity errors : sum local = 3.59723e-10, global = -2.64445e-12, cumulative = 4.28999e-08
DICPCG:  Solving for p, Initial residual = 0.000633565, Final residual = 6.33217e-05, No Iterations 48
time step continuity errors : sum local = 3.66722e-11, global = -2.78385e-12, cumulative = 4.28971e-08
ExecutionTime = 10.35 s  ClockTime = 10 s

Time = 0.355

Courant Number mean: 0.00261895 max: 0.0295757 velocity magnitude: 0.00867232
BiCGStab:  Solving for Ux, Initial residual = 0.000618447, Final residual = 2.28946e-10, No Iterations 1
BiCGStab:  Solving for Uy, Initial residual = 0.000610903, Final residual = 3.97539e-10, No Iterations 1
DICPCG:  Solving for p, Initial residual = 0.00921341, Final residual = 0.000598399, No Iterations 2
time step continuity errors : sum local = 3.43803e-10, global = -4.05047e-12, cumulative = 4.28931e-08
DICPCG:  Solving for p, Initial residual = 0.00061571, Final residual = 6.15256e-05, No Iterations 52
time step continuity errors : sum local = 3.50518e-11, global = -4.49867e-12, cumulative = 4.28886e-08
ExecutionTime = 10.47 s  ClockTime = 10 s

Time = 0.36

Courant Number mean: 0.00261882 max: 0.0295424 velocity magnitude: 0.00866619
BiCGStab:  Solving for Ux, Initial residual = 0.000609609, Final residual = 2.24502e-10, No Iterations 1
BiCGStab:  Solving for Uy, Initial residual = 0.000603757, Final residual = 3.92766e-10, No Iterations 1
DICPCG:  Solving for p, Initial residual = 0.00908944, Final residual = 0.000594315, No Iterations 2
time step continuity errors : sum local = 3.35929e-10, global = -6.21679e-12, cumulative = 4.28824e-08
DICPCG:  Solving for p, Initial residual = 0.000610643, Final residual = 5.6853e-05, No Iterations 121
time step continuity errors : sum local = 3.18685e-11, global = -4.05158e-13, cumulative = 4.2882e-08
ExecutionTime = 10.64 s  ClockTime = 10 s

Time = 0.365

Courant Number mean: 0.00261869 max: 0.029521 velocity magnitude: 0.00865991
BiCGStab:  Solving for Ux, Initial residual = 0.00059959, Final residual = 2.20067e-10, No Iterations 1
BiCGStab:  Solving for Uy, Initial residual = 0.000596948, Final residual = 3.88187e-10, No Iterations 1
DICPCG:  Solving for p, Initial residual = 0.00897474, Final residual = 0.000584893, No Iterations 2
time step continuity errors : sum local = 3.25591e-10, global = 3.70399e-12, cumulative = 4.28857e-08
DICPCG:  Solving for p, Initial residual = 0.000601091, Final residual = 5.96069e-05, No Iterations 39
time step continuity errors : sum local = 3.29088e-11, global = 2.14547e-12, cumulative = 4.28878e-08
ExecutionTime = 10.77 s  ClockTime = 11 s

Time = 0.37

Courant Number mean: 0.00261856 max: 0.0294992 velocity magnitude: 0.00865538
BiCGStab:  Solving for Ux, Initial residual = 0.000591725, Final residual = 2.15992e-10, No Iterations 1
BiCGStab:  Solving for Uy, Initial residual = 0.000590539, Final residual = 3.83841e-10, No Iterations 1
DICPCG:  Solving for p, Initial residual = 0.00886852, Final residual = 0.000565674, No Iterations 2
time step continuity errors : sum local = 3.09886e-10, global = 4.71461e-12, cumulative = 4.28925e-08
DICPCG:  Solving for p, Initial residual = 0.000581411, Final residual = 5.67294e-05, No Iterations 69
time step continuity errors : sum local = 3.0825e-11, global = 4.72223e-12, cumulative = 4.28972e-08
ExecutionTime = 10.93 s  ClockTime = 11 s

Time = 0.375

Courant Number mean: 0.00261843 max: 0.0294768 velocity magnitude: 0.00865337
BiCGStab:  Solving for Ux, Initial residual = 0.00058298, Final residual = 2.11911e-10, No Iterations 1
BiCGStab:  Solving for Uy, Initial residual = 0.000582648, Final residual = 3.79002e-10, No Iterations 1
DICPCG:  Solving for p, Initial residual = 0.00877711, Final residual = 0.00056802, No Iterations 2
time step continuity errors : sum local = 3.06257e-10, global = 7.2902e-12, cumulative = 4.29045e-08
DICPCG:  Solving for p, Initial residual = 0.000583597, Final residual = 5.64855e-05, No Iterations 44
time step continuity errors : sum local = 3.02096e-11, global = 4.35079e-12, cumulative = 4.29089e-08
ExecutionTime = 11.09 s  ClockTime = 11 s

Time = 0.38

Courant Number mean: 0.0026183 max: 0.029454 velocity magnitude: 0.00865125
BiCGStab:  Solving for Ux, Initial residual = 0.000575754, Final residual = 2.08186e-10, No Iterations 1
BiCGStab:  Solving for Uy, Initial residual = 0.000577037, Final residual = 3.75067e-10, No Iterations 1
DICPCG:  Solving for p, Initial residual = 0.00867732, Final residual = 0.000551022, No Iterations 2
time step continuity errors : sum local = 2.92444e-10, global = 3.98696e-12, cumulative = 4.29129e-08
DICPCG:  Solving for p, Initial residual = 0.000566624, Final residual = 5.46831e-05, No Iterations 77
time step continuity errors : sum local = 2.87902e-11, global = 4.52238e-12, cumulative = 4.29174e-08
ExecutionTime = 11.28 s  ClockTime = 11 s

Time = 0.385

Courant Number mean: 0.00261817 max: 0.0294307 velocity magnitude: 0.00864901
BiCGStab:  Solving for Ux, Initial residual = 0.000567414, Final residual = 2.04442e-10, No Iterations 1
BiCGStab:  Solving for Uy, Initial residual = 0.000570365, Final residual = 3.70763e-10, No Iterations 1
DICPCG:  Solving for p, Initial residual = 0.00858714, Final residual = 0.000546782, No Iterations 2
time step continuity errors : sum local = 2.85683e-10, global = 4.68817e-12, cumulative = 4.29221e-08
DICPCG:  Solving for p, Initial residual = 0.000561432, Final residual = 5.30035e-05, No Iterations 37
time step continuity errors : sum local = 2.7474e-11, global = 1.85044e-12, cumulative = 4.29239e-08
ExecutionTime = 11.39 s  ClockTime = 11 s

Time = 0.39

Courant Number mean: 0.00261804 max: 0.0294069 velocity magnitude: 0.00864666
BiCGStab:  Solving for Ux, Initial residual = 0.000560705, Final residual = 2.01043e-10, No Iterations 1
BiCGStab:  Solving for Uy, Initial residual = 0.000564473, Final residual = 3.66885e-10, No Iterations 1
DICPCG:  Solving for p, Initial residual = 0.0084908, Final residual = 0.000535, No Iterations 2
time step continuity errors : sum local = 2.75237e-10, global = -8.16586e-13, cumulative = 4.29231e-08
DICPCG:  Solving for p, Initial residual = 0.000549584, Final residual = 5.15953e-05, No Iterations 52
time step continuity errors : sum local = 2.63354e-11, global = -8.31349e-13, cumulative = 4.29223e-08
ExecutionTime = 11.56 s  ClockTime = 11 s

Time = 0.395

Courant Number mean: 0.00261792 max: 0.0293828 velocity magnitude: 0.00864419
BiCGStab:  Solving for Ux, Initial residual = 0.000553055, Final residual = 1.97635e-10, No Iterations 1
BiCGStab:  Solving for Uy, Initial residual = 0.000557596, Final residual = 3.62687e-10, No Iterations 1
DICPCG:  Solving for p, Initial residual = 0.00841497, Final residual = 0.000533694, No Iterations 2
time step continuity errors : sum local = 2.70396e-10, global = -3.50147e-12, cumulative = 4.29188e-08
DICPCG:  Solving for p, Initial residual = 0.000547929, Final residual = 5.30212e-05, No Iterations 52
time step continuity errors : sum local = 2.66541e-11, global = -3.39457e-12, cumulative = 4.29154e-08
ExecutionTime = 11.68 s  ClockTime = 11 s

Time = 0.4

Courant Number mean: 0.00261779 max: 0.0293582 velocity magnitude: 0.00864161
BiCGStab:  Solving for Ux, Initial residual = 0.00054554, Final residual = 1.94372e-10, No Iterations 1
BiCGStab:  Solving for Uy, Initial residual = 0.00055208, Final residual = 3.58983e-10, No Iterations 1
DICPCG:  Solving for p, Initial residual = 0.00829217, Final residual = 0.000511404, No Iterations 2
time step continuity errors : sum local = 2.55208e-10, global = -5.93966e-12, cumulative = 4.29095e-08
DICPCG:  Solving for p, Initial residual = 0.000525418, Final residual = 4.85544e-05, No Iterations 121
time step continuity errors : sum local = 2.40435e-11, global = -2.96539e-13, cumulative = 4.29092e-08
ExecutionTime = 11.88 s  ClockTime = 12 s

Time = 0.405

Courant Number mean: 0.00261767 max: 0.0293332 velocity magnitude: 0.00863892
BiCGStab:  Solving for Ux, Initial residual = 0.000537492, Final residual = 1.91259e-10, No Iterations 1
BiCGStab:  Solving for Uy, Initial residual = 0.000546512, Final residual = 3.55385e-10, No Iterations 1
DICPCG:  Solving for p, Initial residual = 0.00824111, Final residual = 0.00052463, No Iterations 2
time step continuity errors : sum local = 2.58135e-10, global = 2.83038e-12, cumulative = 4.2912e-08
DICPCG:  Solving for p, Initial residual = 0.000538574, Final residual = 5.12181e-05, No Iterations 45
time step continuity errors : sum local = 2.50082e-11, global = 1.60532e-12, cumulative = 4.29136e-08
ExecutionTime = 12 s  ClockTime = 12 s

Time = 0.41

Courant Number mean: 0.00261754 max: 0.0293079 velocity magnitude: 0.00863612
BiCGStab:  Solving for Ux, Initial residual = 0.000531254, Final residual = 1.88352e-10, No Iterations 1
BiCGStab:  Solving for Uy, Initial residual = 0.00054107, Final residual = 3.51881e-10, No Iterations 1
DICPCG:  Solving for p, Initial residual = 0.00814133, Final residual = 0.000507968, No Iterations 2
time step continuity errors : sum local = 2.46227e-10, global = 3.51499e-12, cumulative = 4.29171e-08
DICPCG:  Solving for p, Initial residual = 0.000521908, Final residual = 5.1823e-05, No Iterations 69
time step continuity errors : sum local = 2.49295e-11, global = 3.51606e-12, cumulative = 4.29206e-08
ExecutionTime = 12.17 s  ClockTime = 12 s

Time = 0.415

Courant Number mean: 0.00261742 max: 0.0292821 velocity magnitude: 0.00863321
BiCGStab:  Solving for Ux, Initial residual = 0.000524362, Final residual = 1.85459e-10, No Iterations 1
BiCGStab:  Solving for Uy, Initial residual = 0.000534995, Final residual = 3.48122e-10, No Iterations 1
DICPCG:  Solving for p, Initial residual = 0.00806226, Final residual = 0.000509407, No Iterations 2
time step continuity errors : sum local = 2.43279e-10, global = 5.43983e-12, cumulative = 4.29261e-08
DICPCG:  Solving for p, Initial residual = 0.000522992, Final residual = 5.05878e-05, No Iterations 45
time step continuity errors : sum local = 2.39772e-11, global = 3.33199e-12, cumulative = 4.29294e-08
ExecutionTime = 12.29 s  ClockTime = 12 s

Time = 0.42

Courant Number mean: 0.0026173 max: 0.029256 velocity magnitude: 0.0086302
BiCGStab:  Solving for Ux, Initial residual = 0.000518594, Final residual = 1.82952e-10, No Iterations 1
BiCGStab:  Solving for Uy, Initial residual = 0.000530228, Final residual = 3.44964e-10, No Iterations 1
DICPCG:  Solving for p, Initial residual = 0.0079816, Final residual = 0.000499098, No Iterations 2
time step continuity errors : sum local = 2.34865e-10, global = 3.15649e-12, cumulative = 4.29326e-08
DICPCG:  Solving for p, Initial residual = 0.000512832, Final residual = 5.02869e-05, No Iterations 77
time step continuity errors : sum local = 2.3487e-11, global = 3.70316e-12, cumulative = 4.29363e-08
ExecutionTime = 12.42 s  ClockTime = 12 s

Time = 0.425

Courant Number mean: 0.00261718 max: 0.0292296 velocity magnitude: 0.00862708
BiCGStab:  Solving for Ux, Initial residual = 0.000511929, Final residual = 1.80418e-10, No Iterations 1
BiCGStab:  Solving for Uy, Initial residual = 0.000524723, Final residual = 3.41518e-10, No Iterations 1
DICPCG:  Solving for p, Initial residual = 0.00791605, Final residual = 0.000495182, No Iterations 2
time step continuity errors : sum local = 2.29627e-10, global = 4.06938e-12, cumulative = 4.29403e-08
DICPCG:  Solving for p, Initial residual = 0.000508417, Final residual = 4.78563e-05, No Iterations 37
time step continuity errors : sum local = 2.20271e-11, global = 1.73437e-12, cumulative = 4.29421e-08
ExecutionTime = 12.53 s  ClockTime = 12 s

Time = 0.43

Courant Number mean: 0.00261706 max: 0.0292028 velocity magnitude: 0.00862386
BiCGStab:  Solving for Ux, Initial residual = 0.000506636, Final residual = 1.78124e-10, No Iterations 1
BiCGStab:  Solving for Uy, Initial residual = 0.000519884, Final residual = 3.38444e-10, No Iterations 1
DICPCG:  Solving for p, Initial residual = 0.00784765, Final residual = 0.000488589, No Iterations 2
time step continuity errors : sum local = 2.23302e-10, global = -2.29207e-13, cumulative = 4.29418e-08
DICPCG:  Solving for p, Initial residual = 0.000501845, Final residual = 4.78314e-05, No Iterations 52
time step continuity errors : sum local = 2.16992e-11, global = -1.72046e-13, cumulative = 4.29417e-08
ExecutionTime = 12.65 s  ClockTime = 12 s

Time = 0.435

Courant Number mean: 0.00261694 max: 0.0291757 velocity magnitude: 0.00862054
BiCGStab:  Solving for Ux, Initial residual = 0.000500514, Final residual = 1.75771e-10, No Iterations 1
BiCGStab:  Solving for Uy, Initial residual = 0.00051421, Final residual = 3.35098e-10, No Iterations 1
DICPCG:  Solving for p, Initial residual = 0.00779327, Final residual = 0.000488169, No Iterations 2
time step continuity errors : sum local = 2.1992e-10, global = -2.06914e-12, cumulative = 4.29396e-08
DICPCG:  Solving for p, Initial residual = 0.000501107, Final residual = 4.35008e-05, No Iterations 52
time step continuity errors : sum local = 1.94535e-11, global = -1.9315e-12, cumulative = 4.29377e-08
ExecutionTime = 12.8 s  ClockTime = 13 s

Time = 0.44

Courant Number mean: 0.00261682 max: 0.0291482 velocity magnitude: 0.00861712
BiCGStab:  Solving for Ux, Initial residual = 0.000494636, Final residual = 1.73492e-10, No Iterations 1
BiCGStab:  Solving for Uy, Initial residual = 0.000509697, Final residual = 3.3218e-10, No Iterations 1
DICPCG:  Solving for p, Initial residual = 0.00769181, Final residual = 0.000467466, No Iterations 2
time step continuity errors : sum local = 2.07608e-10, global = -3.67919e-12, cumulative = 4.2934e-08
DICPCG:  Solving for p, Initial residual = 0.000480417, Final residual = 4.79722e-05, No Iterations 120
time step continuity errors : sum local = 2.11502e-11, global = -3.2302e-13, cumulative = 4.29337e-08
ExecutionTime = 12.97 s  ClockTime = 13 s

Time = 0.445

Courant Number mean: 0.00261671 max: 0.0291204 velocity magnitude: 0.00861361
BiCGStab:  Solving for Ux, Initial residual = 0.000489638, Final residual = 1.7128e-10, No Iterations 1
BiCGStab:  Solving for Uy, Initial residual = 0.000504976, Final residual = 3.29268e-10, No Iterations 1
DICPCG:  Solving for p, Initial residual = 0.00766525, Final residual = 0.000480175, No Iterations 2
time step continuity errors : sum local = 2.10385e-10, global = 1.34725e-12, cumulative = 4.2935e-08
DICPCG:  Solving for p, Initial residual = 0.00049285, Final residual = 4.90991e-05, No Iterations 42
time step continuity errors : sum local = 2.13574e-11, global = 4.9176e-13, cumulative = 4.29355e-08
ExecutionTime = 13.06 s  ClockTime = 13 s

Time = 0.45

Courant Number mean: 0.00261659 max: 0.0290924 velocity magnitude: 0.00861
BiCGStab:  Solving for Ux, Initial residual = 0.000485878, Final residual = 1.69201e-10, No Iterations 1
BiCGStab:  Solving for Uy, Initial residual = 0.000500578, Final residual = 3.26537e-10, No Iterations 1
DICPCG:  Solving for p, Initial residual = 0.00760355, Final residual = 0.000470454, No Iterations 2
time step continuity errors : sum local = 2.03243e-10, global = 1.2848e-12, cumulative = 4.29368e-08
DICPCG:  Solving for p, Initial residual = 0.000483123, Final residual = 4.80209e-05, No Iterations 52
time step continuity errors : sum local = 2.05973e-11, global = 9.32867e-13, cumulative = 4.29377e-08
ExecutionTime = 13.19 s  ClockTime = 13 s

Time = 0.455

Courant Number mean: 0.00261648 max: 0.0290641 velocity magnitude: 0.00860629
BiCGStab:  Solving for Ux, Initial residual = 0.000481513, Final residual = 1.67124e-10, No Iterations 1
BiCGStab:  Solving for Uy, Initial residual = 0.000495371, Final residual = 3.2351e-10, No Iterations 1
DICPCG:  Solving for p, Initial residual = 0.00756052, Final residual = 0.000472816, No Iterations 2
time step continuity errors : sum local = 2.01426e-10, global = 1.38404e-12, cumulative = 4.29391e-08
DICPCG:  Solving for p, Initial residual = 0.000485488, Final residual = 4.33262e-05, No Iterations 52
time step continuity errors : sum local = 1.83262e-11, global = 1.12268e-12, cumulative = 4.29402e-08
ExecutionTime = 13.31 s  ClockTime = 13 s

Time = 0.46

Courant Number mean: 0.00261636 max: 0.0290355 velocity magnitude: 0.00860249
BiCGStab:  Solving for Ux, Initial residual = 0.000477543, Final residual = 1.65132e-10, No Iterations 1
BiCGStab:  Solving for Uy, Initial residual = 0.000491269, Final residual = 3.20944e-10, No Iterations 1
DICPCG:  Solving for p, Initial residual = 0.00747265, Final residual = 0.00045074, No Iterations 2
time step continuity errors : sum local = 1.89369e-10, global = 1.31307e-12, cumulative = 4.29415e-08
DICPCG:  Solving for p, Initial residual = 0.000463078, Final residual = 4.59598e-05, No Iterations 48
time step continuity errors : sum local = 1.91729e-11, global = 6.52809e-13, cumulative = 4.29422e-08
ExecutionTime = 13.43 s  ClockTime = 13 s

Time = 0.465

Courant Number mean: 0.00261625 max: 0.0290066 velocity magnitude: 0.0085986
BiCGStab:  Solving for Ux, Initial residual = 0.000473665, Final residual = 1.63236e-10, No Iterations 1
BiCGStab:  Solving for Uy, Initial residual = 0.000486871, Final residual = 3.18315e-10, No Iterations 1
DICPCG:  Solving for p, Initial residual = 0.00744975, Final residual = 0.000460428, No Iterations 2
time step continuity errors : sum local = 1.9079e-10, global = 1.88748e-13, cumulative = 4.29424e-08
DICPCG:  Solving for p, Initial residual = 0.00047278, Final residual = 4.58759e-05, No Iterations 51
time step continuity errors : sum local = 1.88765e-11, global = 9.02009e-15, cumulative = 4.29424e-08
ExecutionTime = 13.55 s  ClockTime = 13 s

Time = 0.47

Courant Number mean: 0.00261614 max: 0.0289775 velocity magnitude: 0.00859462
BiCGStab:  Solving for Ux, Initial residual = 0.000469658, Final residual = 1.61346e-10, No Iterations 1
BiCGStab:  Solving for Uy, Initial residual = 0.000482399, Final residual = 3.15671e-10, No Iterations 1
DICPCG:  Solving for p, Initial residual = 0.00740115, Final residual = 0.000457506, No Iterations 2
time step continuity errors : sum local = 1.86999e-10, global = -6.28339e-13, cumulative = 4.29418e-08
DICPCG:  Solving for p, Initial residual = 0.000469462, Final residual = 4.51183e-05, No Iterations 49
time step continuity errors : sum local = 1.83129e-11, global = -8.81136e-13, cumulative = 4.29409e-08
ExecutionTime = 13.66 s  ClockTime = 13 s

Time = 0.475

Courant Number mean: 0.00261602 max: 0.0289481 velocity magnitude: 0.00859055
BiCGStab:  Solving for Ux, Initial residual = 0.000465822, Final residual = 1.59538e-10, No Iterations 1
BiCGStab:  Solving for Uy, Initial residual = 0.000478253, Final residual = 3.13188e-10, No Iterations 1
DICPCG:  Solving for p, Initial residual = 0.0073537, Final residual = 0.000449721, No Iterations 2
time step continuity errors : sum local = 1.81334e-10, global = -1.7737e-12, cumulative = 4.29391e-08
DICPCG:  Solving for p, Initial residual = 0.000461982, Final residual = 4.25858e-05, No Iterations 52
time step continuity errors : sum local = 1.70524e-11, global = -1.92375e-12, cumulative = 4.29372e-08
ExecutionTime = 13.78 s  ClockTime = 14 s

Time = 0.48

Courant Number mean: 0.00261591 max: 0.0289184 velocity magnitude: 0.0085864
BiCGStab:  Solving for Ux, Initial residual = 0.000461929, Final residual = 1.57767e-10, No Iterations 1
BiCGStab:  Solving for Uy, Initial residual = 0.00047389, Final residual = 3.10639e-10, No Iterations 1
DICPCG:  Solving for p, Initial residual = 0.0072969, Final residual = 0.000451621, No Iterations 2
time step continuity errors : sum local = 1.7966e-10, global = -2.96228e-12, cumulative = 4.29342e-08
DICPCG:  Solving for p, Initial residual = 0.000463455, Final residual = 4.56815e-05, No Iterations 54
time step continuity errors : sum local = 1.80476e-11, global = -2.93621e-12, cumulative = 4.29313e-08
ExecutionTime = 13.92 s  ClockTime = 14 s

Time = 0.485

Courant Number mean: 0.0026158 max: 0.0288886 velocity magnitude: 0.00858216
BiCGStab:  Solving for Ux, Initial residual = 0.000458102, Final residual = 1.5603e-10, No Iterations 1
BiCGStab:  Solving for Uy, Initial residual = 0.000469786, Final residual = 3.08221e-10, No Iterations 1
DICPCG:  Solving for p, Initial residual = 0.00725135, Final residual = 0.000444042, No Iterations 2
time step continuity errors : sum local = 1.74294e-10, global = -3.9409e-12, cumulative = 4.29273e-08
DICPCG:  Solving for p, Initial residual = 0.000456483, Final residual = 4.24383e-05, No Iterations 120
time step continuity errors : sum local = 1.65439e-11, global = -2.11023e-13, cumulative = 4.29271e-08
ExecutionTime = 14.11 s  ClockTime = 14 s

Time = 0.49

Courant Number mean: 0.00261569 max: 0.0288585 velocity magnitude: 0.00857784
BiCGStab:  Solving for Ux, Initial residual = 0.000453871, Final residual = 1.54328e-10, No Iterations 1
BiCGStab:  Solving for Uy, Initial residual = 0.000466005, Final residual = 3.05944e-10, No Iterations 1
DICPCG:  Solving for p, Initial residual = 0.00718969, Final residual = 0.000449824, No Iterations 2
time step continuity errors : sum local = 1.74363e-10, global = 2.56908e-12, cumulative = 4.29297e-08
DICPCG:  Solving for p, Initial residual = 0.00046182, Final residual = 4.61334e-05, No Iterations 51
time step continuity errors : sum local = 1.77612e-11, global = 1.77058e-12, cumulative = 4.29315e-08
ExecutionTime = 14.22 s  ClockTime = 14 s

Time = 0.495

Courant Number mean: 0.00261558 max: 0.0288282 velocity magnitude: 0.00857344
BiCGStab:  Solving for Ux, Initial residual = 0.000450412, Final residual = 1.52707e-10, No Iterations 1
BiCGStab:  Solving for Uy, Initial residual = 0.000461913, Final residual = 3.03586e-10, No Iterations 1
DICPCG:  Solving for p, Initial residual = 0.00714188, Final residual = 0.000443812, No Iterations 2
time step continuity errors : sum local = 1.69763e-10, global = 3.73479e-12, cumulative = 4.29352e-08
DICPCG:  Solving for p, Initial residual = 0.000455996, Final residual = 4.17349e-05, No Iterations 121
time step continuity errors : sum local = 1.58565e-11, global = -1.0191e-13, cumulative = 4.29351e-08
ExecutionTime = 14.4 s  ClockTime = 14 s

Time = 0.5

Courant Number mean: 0.00261548 max: 0.0287978 velocity magnitude: 0.00856896
BiCGStab:  Solving for Ux, Initial residual = 0.000447023, Final residual = 1.51138e-10, No Iterations 1
BiCGStab:  Solving for Uy, Initial residual = 0.000458149, Final residual = 3.01311e-10, No Iterations 1
DICPCG:  Solving for p, Initial residual = 0.00710557, Final residual = 0.000437455, No Iterations 2
time step continuity errors : sum local = 1.65005e-10, global = -1.99742e-12, cumulative = 4.29331e-08
DICPCG:  Solving for p, Initial residual = 0.000449421, Final residual = 4.4134e-05, No Iterations 51
time step continuity errors : sum local = 1.65356e-11, global = -2.43604e-12, cumulative = 4.29307e-08
ExecutionTime = 14.5 s  ClockTime = 14 s

Time = 0.505

Courant Number mean: 0.00261537 max: 0.0287671 velocity magnitude: 0.0085644
BiCGStab:  Solving for Ux, Initial residual = 0.000443703, Final residual = 1.49624e-10, No Iterations 1
BiCGStab:  Solving for Uy, Initial residual = 0.000454152, Final residual = 2.99022e-10, No Iterations 1
DICPCG:  Solving for p, Initial residual = 0.00704976, Final residual = 0.000441292, No Iterations 2
time step continuity errors : sum local = 1.64301e-10, global = -4.76399e-12, cumulative = 4.29259e-08
DICPCG:  Solving for p, Initial residual = 0.0004532, Final residual = 4.13125e-05, No Iterations 121
time step continuity errors : sum local = 1.52797e-11, global = -1.97564e-13, cumulative = 4.29257e-08
ExecutionTime = 14.68 s  ClockTime = 14 s

Time = 0.51

Courant Number mean: 0.00261526 max: 0.0287362 velocity magnitude: 0.00855977
BiCGStab:  Solving for Ux, Initial residual = 0.000439392, Final residual = 1.48065e-10, No Iterations 1
BiCGStab:  Solving for Uy, Initial residual = 0.000450546, Final residual = 2.96863e-10, No Iterations 1
DICPCG:  Solving for p, Initial residual = 0.0069976, Final residual = 0.00044196, No Iterations 2
time step continuity errors : sum local = 1.626e-10, global = 2.05937e-12, cumulative = 4.29278e-08
DICPCG:  Solving for p, Initial residual = 0.000453748, Final residual = 4.25293e-05, No Iterations 49
time step continuity errors : sum local = 1.5545e-11, global = 1.35987e-12, cumulative = 4.29291e-08
ExecutionTime = 14.79 s  ClockTime = 15 s

Time = 0.515

Courant Number mean: 0.00261516 max: 0.0287052 velocity magnitude: 0.00855506
BiCGStab:  Solving for Ux, Initial residual = 0.000436151, Final residual = 1.46644e-10, No Iterations 1
BiCGStab:  Solving for Uy, Initial residual = 0.000446922, Final residual = 2.94751e-10, No Iterations 1
DICPCG:  Solving for p, Initial residual = 0.00694042, Final residual = 0.000433752, No Iterations 2
time step continuity errors : sum local = 1.57562e-10, global = 2.91609e-12, cumulative = 4.2932e-08
DICPCG:  Solving for p, Initial residual = 0.000445481, Final residual = 4.21112e-05, No Iterations 121
time step continuity errors : sum local = 1.51989e-11, global = -7.24948e-14, cumulative = 4.2932e-08
ExecutionTime = 14.97 s  ClockTime = 15 s

Time = 0.52

Courant Number mean: 0.00261505 max: 0.028674 velocity magnitude: 0.0085512
BiCGStab:  Solving for Ux, Initial residual = 0.000432807, Final residual = 1.45263e-10, No Iterations 1
BiCGStab:  Solving for Uy, Initial residual = 0.000443286, Final residual = 2.92592e-10, No Iterations 1
DICPCG:  Solving for p, Initial residual = 0.00689636, Final residual = 0.000428181, No Iterations 2
time step continuity errors : sum local = 1.53492e-10, global = -1.52469e-12, cumulative = 4.29304e-08
DICPCG:  Solving for p, Initial residual = 0.000439709, Final residual = 4.3007e-05, No Iterations 48
time step continuity errors : sum local = 1.53194e-11, global = -1.92567e-12, cumulative = 4.29285e-08
ExecutionTime = 15.11 s  ClockTime = 15 s

Time = 0.525

Courant Number mean: 0.00261494 max: 0.0286427 velocity magnitude: 0.00854949
BiCGStab:  Solving for Ux, Initial residual = 0.0004297, Final residual = 1.43926e-10, No Iterations 1
BiCGStab:  Solving for Uy, Initial residual = 0.000439755, Final residual = 2.90549e-10, No Iterations 1
DICPCG:  Solving for p, Initial residual = 0.0068461, Final residual = 0.000429965, No Iterations 2
time step continuity errors : sum local = 1.52239e-10, global = -3.7769e-12, cumulative = 4.29247e-08
DICPCG:  Solving for p, Initial residual = 0.000441504, Final residual = 4.20791e-05, No Iterations 121
[...]
BiCGStab:  Solving for Ux, Initial residual = 2.98174e-05, Final residual = 1.77324e-11, No Iterations 1
BiCGStab:  Solving for Uy, Initial residual = 7.60168e-05, Final residual = 3.07072e-11, No Iterations 1
DICPCG:  Solving for p, Initial residual = 0.000265985, Final residual = 2.59878e-05, No Iterations 30
time step continuity errors : sum local = 4.29156e-13, global = -1.43858e-14, cumulative = 4.29759e-08
DICPCG:  Solving for p, Initial residual = 4.36539e-05, Final residual = 4.23717e-06, No Iterations 52
time step continuity errors : sum local = 6.99654e-14, global = -6.2754e-15, cumulative = 4.29759e-08
ExecutionTime = 249.85 s  ClockTime = 251 s

Time = 6.25

Courant Number mean: 0.00257709 max: 0.0210915 velocity magnitude: 0.00751004
BiCGStab:  Solving for Ux, Initial residual = 2.97967e-05, Final residual = 1.77169e-11, No Iterations 1
BiCGStab:  Solving for Uy, Initial residual = 7.59914e-05, Final residual = 3.0673e-11, No Iterations 1
DICPCG:  Solving for p, Initial residual = 0.000260094, Final residual = 2.5202e-05, No Iterations 32
time step continuity errors : sum local = 4.16108e-13, global = -1.02141e-14, cumulative = 4.29759e-08
DICPCG:  Solving for p, Initial residual = 4.15572e-05, Final residual = 4.14392e-06, No Iterations 53
time step continuity errors : sum local = 6.84138e-14, global = -2.12043e-15, cumulative = 4.29759e-08
ExecutionTime = 249.99 s  ClockTime = 251 s

Time = 6.255

Courant Number mean: 0.00257708 max: 0.0210892 velocity magnitude: 0.0075096
BiCGStab:  Solving for Ux, Initial residual = 2.97756e-05, Final residual = 1.77012e-11, No Iterations 1
BiCGStab:  Solving for Uy, Initial residual = 7.59694e-05, Final residual = 3.06393e-11, No Iterations 1
DICPCG:  Solving for p, Initial residual = 0.000259926, Final residual = 2.59174e-05, No Iterations 31
time step continuity errors : sum local = 4.27846e-13, global = 2.89513e-15, cumulative = 4.29759e-08
DICPCG:  Solving for p, Initial residual = 4.29083e-05, Final residual = 4.09981e-06, No Iterations 58
time step continuity errors : sum local = 6.76743e-14, global = 9.88857e-15, cumulative = 4.29759e-08
ExecutionTime = 250.13 s  ClockTime = 252 s

Time = 6.26

Courant Number mean: 0.00257706 max: 0.0210868 velocity magnitude: 0.00750916
BiCGStab:  Solving for Ux, Initial residual = 2.97547e-05, Final residual = 1.76855e-11, No Iterations 1
BiCGStab:  Solving for Uy, Initial residual = 7.59465e-05, Final residual = 3.06056e-11, No Iterations 1
DICPCG:  Solving for p, Initial residual = 0.000276285, Final residual = 2.54825e-05, No Iterations 29
time step continuity errors : sum local = 4.20597e-13, global = 2.16628e-14, cumulative = 4.29759e-08
DICPCG:  Solving for p, Initial residual = 4.2613e-05, Final residual = 4.13034e-06, No Iterations 136
time step continuity errors : sum local = 6.8167e-14, global = 7.87257e-17, cumulative = 4.29759e-08
ExecutionTime = 250.34 s  ClockTime = 252 s

Time = 6.265

Courant Number mean: 0.00257705 max: 0.0210845 velocity magnitude: 0.00750873
BiCGStab:  Solving for Ux, Initial residual = 2.97315e-05, Final residual = 1.76694e-11, No Iterations 1
BiCGStab:  Solving for Uy, Initial residual = 7.5925e-05, Final residual = 3.05723e-11, No Iterations 1
DICPCG:  Solving for p, Initial residual = 0.000281507, Final residual = 2.58506e-05, No Iterations 29
time step continuity errors : sum local = 4.2667e-13, global = -1.01512e-14, cumulative = 4.29759e-08
DICPCG:  Solving for p, Initial residual = 4.42867e-05, Final residual = 4.29205e-06, No Iterations 50
time step continuity errors : sum local = 7.08354e-14, global = -2.53288e-15, cumulative = 4.29759e-08
ExecutionTime = 250.46 s  ClockTime = 252 s

Time = 6.27

Courant Number mean: 0.00257703 max: 0.0210822 velocity magnitude: 0.00750829
BiCGStab:  Solving for Ux, Initial residual = 2.9711e-05, Final residual = 1.76539e-11, No Iterations 1
BiCGStab:  Solving for Uy, Initial residual = 7.58998e-05, Final residual = 3.0538e-11, No Iterations 1
DICPCG:  Solving for p, Initial residual = 0.000300353, Final residual = 2.95958e-05, No Iterations 27
time step continuity errors : sum local = 4.88404e-13, global = -2.79162e-15, cumulative = 4.29759e-08
DICPCG:  Solving for p, Initial residual = 4.61908e-05, Final residual = 4.57529e-06, No Iterations 50
time step continuity errors : sum local = 7.54974e-14, global = 4.58184e-15, cumulative = 4.29759e-08
ExecutionTime = 250.59 s  ClockTime = 252 s

Time = 6.275

Courant Number mean: 0.00257702 max: 0.0210799 velocity magnitude: 0.00750785
BiCGStab:  Solving for Ux, Initial residual = 2.969e-05, Final residual = 1.7638e-11, No Iterations 1
BiCGStab:  Solving for Uy, Initial residual = 7.58778e-05, Final residual = 3.05047e-11, No Iterations 1
DICPCG:  Solving for p, Initial residual = 0.000305249, Final residual = 2.84931e-05, No Iterations 27
time step continuity errors : sum local = 4.7013e-13, global = 1.26309e-14, cumulative = 4.29759e-08
DICPCG:  Solving for p, Initial residual = 4.57637e-05, Final residual = 4.51373e-06, No Iterations 138
time step continuity errors : sum local = 7.44695e-14, global = 2.85498e-17, cumulative = 4.29759e-08
ExecutionTime = 250.79 s  ClockTime = 252 s

Time = 6.28

Courant Number mean: 0.00257701 max: 0.0210776 velocity magnitude: 0.00750741
BiCGStab:  Solving for Ux, Initial residual = 2.96676e-05, Final residual = 1.76221e-11, No Iterations 1
BiCGStab:  Solving for Uy, Initial residual = 7.58556e-05, Final residual = 3.04712e-11, No Iterations 1
DICPCG:  Solving for p, Initial residual = 0.000314193, Final residual = 2.90468e-05, No Iterations 28
time step continuity errors : sum local = 4.7924e-13, global = -5.41134e-15, cumulative = 4.29759e-08
DICPCG:  Solving for p, Initial residual = 4.69944e-05, Final residual = 4.41486e-06, No Iterations 50
time step continuity errors : sum local = 7.28343e-14, global = 1.27639e-15, cumulative = 4.29759e-08
ExecutionTime = 250.92 s  ClockTime = 252 s

Time = 6.285

Courant Number mean: 0.00257699 max: 0.0210753 velocity magnitude: 0.00750697
BiCGStab:  Solving for Ux, Initial residual = 2.96474e-05, Final residual = 1.76064e-11, No Iterations 1
BiCGStab:  Solving for Uy, Initial residual = 7.58313e-05, Final residual = 3.04374e-11, No Iterations 1
DICPCG:  Solving for p, Initial residual = 0.000295128, Final residual = 2.85968e-05, No Iterations 26
time step continuity errors : sum local = 4.71738e-13, global = 4.6549e-15, cumulative = 4.29759e-08
DICPCG:  Solving for p, Initial residual = 4.57448e-05, Final residual = 4.51954e-06, No Iterations 60
time step continuity errors : sum local = 7.45491e-14, global = 1.33257e-14, cumulative = 4.29759e-08
ExecutionTime = 251.06 s  ClockTime = 252 s

Time = 6.29

Courant Number mean: 0.00257698 max: 0.021073 velocity magnitude: 0.00750653
BiCGStab:  Solving for Ux, Initial residual = 2.96263e-05, Final residual = 1.75907e-11, No Iterations 1
BiCGStab:  Solving for Uy, Initial residual = 7.58083e-05, Final residual = 3.0404e-11, No Iterations 1
DICPCG:  Solving for p, Initial residual = 0.000259877, Final residual = 2.45404e-05, No Iterations 31
time step continuity errors : sum local = 4.04759e-13, global = 2.4026e-14, cumulative = 4.29759e-08
DICPCG:  Solving for p, Initial residual = 4.16483e-05, Final residual = 4.14236e-06, No Iterations 133
time step continuity errors : sum local = 6.83169e-14, global = 2.16394e-16, cumulative = 4.29759e-08
ExecutionTime = 251.26 s  ClockTime = 253 s

Time = 6.295

Courant Number mean: 0.00257697 max: 0.0210707 velocity magnitude: 0.00750609
BiCGStab:  Solving for Ux, Initial residual = 2.96034e-05, Final residual = 1.75745e-11, No Iterations 1
BiCGStab:  Solving for Uy, Initial residual = 7.57869e-05, Final residual = 3.03712e-11, No Iterations 1
DICPCG:  Solving for p, Initial residual = 0.000260748, Final residual = 2.50423e-05, No Iterations 31
time step continuity errors : sum local = 4.13039e-13, global = -1.28725e-14, cumulative = 4.29759e-08
DICPCG:  Solving for p, Initial residual = 4.26673e-05, Final residual = 4.26149e-06, No Iterations 52
time step continuity errors : sum local = 7.0282e-14, global = -4.94166e-15, cumulative = 4.29759e-08
ExecutionTime = 251.39 s  ClockTime = 253 s

Time = 6.3

Courant Number mean: 0.00257695 max: 0.0210684 velocity magnitude: 0.00750565
BiCGStab:  Solving for Ux, Initial residual = 2.95832e-05, Final residual = 1.75588e-11, No Iterations 1
BiCGStab:  Solving for Uy, Initial residual = 7.57619e-05, Final residual = 3.03373e-11, No Iterations 1
DICPCG:  Solving for p, Initial residual = 0.000254189, Final residual = 2.51891e-05, No Iterations 32
time step continuity errors : sum local = 4.15393e-13, global = -7.76756e-15, cumulative = 4.29759e-08
DICPCG:  Solving for p, Initial residual = 4.16274e-05, Final residual = 4.11268e-06, No Iterations 53
time step continuity errors : sum local = 6.78163e-14, global = 7.79435e-17, cumulative = 4.29759e-08
ExecutionTime = 251.52 s  ClockTime = 253 s

Time = 6.305

Courant Number mean: 0.00257694 max: 0.0210661 velocity magnitude: 0.00750522
BiCGStab:  Solving for Ux, Initial residual = 2.95625e-05, Final residual = 1.7543e-11, No Iterations 1
BiCGStab:  Solving for Uy, Initial residual = 7.57398e-05, Final residual = 3.03042e-11, No Iterations 1
DICPCG:  Solving for p, Initial residual = 0.000249581, Final residual = 2.41756e-05, No Iterations 33
time step continuity errors : sum local = 3.98612e-13, global = 5.9281e-15, cumulative = 4.29759e-08
DICPCG:  Solving for p, Initial residual = 4.06557e-05, Final residual = 4.04893e-06, No Iterations 60
time step continuity errors : sum local = 6.67542e-14, global = 1.32207e-14, cumulative = 4.29759e-08
ExecutionTime = 251.66 s  ClockTime = 253 s

Time = 6.31

Courant Number mean: 0.00257693 max: 0.0210638 velocity magnitude: 0.00750478
BiCGStab:  Solving for Ux, Initial residual = 2.95419e-05, Final residual = 1.75272e-11, No Iterations 1
BiCGStab:  Solving for Uy, Initial residual = 7.5717e-05, Final residual = 3.02711e-11, No Iterations 1
DICPCG:  Solving for p, Initial residual = 0.000250165, Final residual = 2.3963e-05, No Iterations 33
time step continuity errors : sum local = 3.95044e-13, global = 2.51304e-14, cumulative = 4.29759e-08
DICPCG:  Solving for p, Initial residual = 4.05013e-05, Final residual = 4.04838e-06, No Iterations 133
time step continuity errors : sum local = 6.67349e-14, global = 2.80283e-16, cumulative = 4.29759e-08
ExecutionTime = 251.87 s  ClockTime = 253 s

Time = 6.315

Courant Number mean: 0.00257691 max: 0.0210615 velocity magnitude: 0.00750434
BiCGStab:  Solving for Ux, Initial residual = 2.95191e-05, Final residual = 1.75109e-11, No Iterations 1
BiCGStab:  Solving for Uy, Initial residual = 7.56955e-05, Final residual = 3.02384e-11, No Iterations 1
DICPCG:  Solving for p, Initial residual = 0.000251694, Final residual = 2.49579e-05, No Iterations 33
time step continuity errors : sum local = 4.11453e-13, global = -1.25635e-14, cumulative = 4.29759e-08
DICPCG:  Solving for p, Initial residual = 4.15607e-05, Final residual = 3.89515e-06, No Iterations 54
time step continuity errors : sum local = 6.42098e-14, global = -4.54461e-15, cumulative = 4.29759e-08
ExecutionTime = 252 s  ClockTime = 253 s

Time = 6.32

Courant Number mean: 0.0025769 max: 0.0210592 velocity magnitude: 0.0075039
BiCGStab:  Solving for Ux, Initial residual = 2.94991e-05, Final residual = 1.74952e-11, No Iterations 1
BiCGStab:  Solving for Uy, Initial residual = 7.56708e-05, Final residual = 3.02048e-11, No Iterations 1
DICPCG:  Solving for p, Initial residual = 0.000249275, Final residual = 2.42542e-05, No Iterations 33
time step continuity errors : sum local = 3.99786e-13, global = -7.28033e-15, cumulative = 4.29759e-08
DICPCG:  Solving for p, Initial residual = 4.07265e-05, Final residual = 3.98254e-06, No Iterations 54
time step continuity errors : sum local = 6.56395e-14, global = 2.60447e-16, cumulative = 4.29759e-08
ExecutionTime = 252.13 s  ClockTime = 254 s

Time = 6.325

Courant Number mean: 0.00257688 max: 0.0210569 velocity magnitude: 0.00750345
BiCGStab:  Solving for Ux, Initial residual = 2.94786e-05, Final residual = 1.74794e-11, No Iterations 1
BiCGStab:  Solving for Uy, Initial residual = 7.56486e-05, Final residual = 3.0172e-11, No Iterations 1
DICPCG:  Solving for p, Initial residual = 0.00024688, Final residual = 2.41491e-05, No Iterations 33
time step continuity errors : sum local = 3.9799e-13, global = 6.04362e-15, cumulative = 4.29759e-08
DICPCG:  Solving for p, Initial residual = 4.06868e-05, Final residual = 4.00894e-06, No Iterations 60
time step continuity errors : sum local = 6.60641e-14, global = 1.33331e-14, cumulative = 4.29759e-08
ExecutionTime = 252.27 s  ClockTime = 254 s

Time = 6.33

Courant Number mean: 0.00257687 max: 0.0210546 velocity magnitude: 0.00750301
BiCGStab:  Solving for Ux, Initial residual = 2.94581e-05, Final residual = 1.74635e-11, No Iterations 1
BiCGStab:  Solving for Uy, Initial residual = 7.56259e-05, Final residual = 3.01391e-11, No Iterations 1
DICPCG:  Solving for p, Initial residual = 0.000248601, Final residual = 2.36457e-05, No Iterations 33
time step continuity errors : sum local = 3.89633e-13, global = 2.51584e-14, cumulative = 4.2976e-08
DICPCG:  Solving for p, Initial residual = 4.01518e-05, Final residual = 3.96962e-06, No Iterations 134
time step continuity errors : sum local = 6.54062e-14, global = 1.46129e-16, cumulative = 4.2976e-08
ExecutionTime = 252.47 s  ClockTime = 254 s

Time = 6.335

Courant Number mean: 0.00257686 max: 0.0210523 velocity magnitude: 0.00750257
BiCGStab:  Solving for Ux, Initial residual = 2.94355e-05, Final residual = 1.74472e-11, No Iterations 1
BiCGStab:  Solving for Uy, Initial residual = 7.56045e-05, Final residual = 3.01067e-11, No Iterations 1
DICPCG:  Solving for p, Initial residual = 0.0002503, Final residual = 2.47247e-05, No Iterations 33
time step continuity errors : sum local = 4.07421e-13, global = -1.27274e-14, cumulative = 4.2976e-08
DICPCG:  Solving for p, Initial residual = 4.13285e-05, Final residual = 3.87227e-06, No Iterations 54
time step continuity errors : sum local = 6.38032e-14, global = -4.68751e-15, cumulative = 4.2976e-08
ExecutionTime = 252.6 s  ClockTime = 254 s

Time = 6.34

Courant Number mean: 0.00257684 max: 0.02105 velocity magnitude: 0.00750213
BiCGStab:  Solving for Ux, Initial residual = 2.94156e-05, Final residual = 1.74314e-11, No Iterations 1
BiCGStab:  Solving for Uy, Initial residual = 7.55799e-05, Final residual = 3.00734e-11, No Iterations 1
DICPCG:  Solving for p, Initial residual = 0.000248065, Final residual = 2.41184e-05, No Iterations 33
time step continuity errors : sum local = 3.97366e-13, global = -7.51566e-15, cumulative = 4.29759e-08
DICPCG:  Solving for p, Initial residual = 4.06663e-05, Final residual = 3.99973e-06, No Iterations 54
time step continuity errors : sum local = 6.58927e-14, global = -5.11894e-17, cumulative = 4.29759e-08
ExecutionTime = 252.73 s  ClockTime = 254 s

Time = 6.345

Courant Number mean: 0.00257683 max: 0.0210477 velocity magnitude: 0.00750169
BiCGStab:  Solving for Ux, Initial residual = 2.93953e-05, Final residual = 1.74155e-11, No Iterations 1
BiCGStab:  Solving for Uy, Initial residual = 7.55578e-05, Final residual = 3.00408e-11, No Iterations 1
DICPCG:  Solving for p, Initial residual = 0.000245904, Final residual = 2.40472e-05, No Iterations 33
time step continuity errors : sum local = 3.96128e-13, global = 5.54631e-15, cumulative = 4.29759e-08
DICPCG:  Solving for p, Initial residual = 4.05674e-05, Final residual = 3.93592e-06, No Iterations 60
time step continuity errors : sum local = 6.48312e-14, global = 1.28389e-14, cumulative = 4.2976e-08
ExecutionTime = 252.87 s  ClockTime = 254 s

Time = 6.35

Courant Number mean: 0.00257682 max: 0.0210455 velocity magnitude: 0.00750125
BiCGStab:  Solving for Ux, Initial residual = 2.9375e-05, Final residual = 1.73996e-11, No Iterations 1
BiCGStab:  Solving for Uy, Initial residual = 7.55352e-05, Final residual = 3.00081e-11, No Iterations 1
DICPCG:  Solving for p, Initial residual = 0.000247573, Final residual = 2.34683e-05, No Iterations 33
time step continuity errors : sum local = 3.86534e-13, global = 2.45583e-14, cumulative = 4.2976e-08
DICPCG:  Solving for p, Initial residual = 3.99871e-05, Final residual = 3.91772e-06, No Iterations 134
time step continuity errors : sum local = 6.45217e-14, global = 1.49063e-16, cumulative = 4.2976e-08
ExecutionTime = 253.07 s  ClockTime = 254 s

Time = 6.355

Courant Number mean: 0.0025768 max: 0.0210432 velocity magnitude: 0.00750081
BiCGStab:  Solving for Ux, Initial residual = 2.93526e-05, Final residual = 1.73833e-11, No Iterations 1
BiCGStab:  Solving for Uy, Initial residual = 7.55138e-05, Final residual = 2.99759e-11, No Iterations 1
DICPCG:  Solving for p, Initial residual = 0.000249843, Final residual = 2.48925e-05, No Iterations 33
time step continuity errors : sum local = 4.09999e-13, global = -1.22513e-14, cumulative = 4.2976e-08
DICPCG:  Solving for p, Initial residual = 4.14773e-05, Final residual = 4.1044e-06, No Iterations 53
time step continuity errors : sum local = 6.75973e-14, global = -4.39768e-15, cumulative = 4.2976e-08
ExecutionTime = 253.2 s  ClockTime = 255 s

Time = 6.36

Courant Number mean: 0.00257679 max: 0.0210409 velocity magnitude: 0.00750037
BiCGStab:  Solving for Ux, Initial residual = 2.93329e-05, Final residual = 1.73674e-11, No Iterations 1
BiCGStab:  Solving for Uy, Initial residual = 7.54894e-05, Final residual = 2.99428e-11, No Iterations 1
DICPCG:  Solving for p, Initial residual = 0.000247794, Final residual = 2.40458e-05, No Iterations 33
time step continuity errors : sum local = 3.95989e-13, global = -6.88107e-15, cumulative = 4.2976e-08
DICPCG:  Solving for p, Initial residual = 4.04899e-05, Final residual = 3.97314e-06, No Iterations 54
time step continuity errors : sum local = 6.54249e-14, global = 5.69263e-16, cumulative = 4.2976e-08
ExecutionTime = 253.34 s  ClockTime = 255 s

Time = 6.365

Courant Number mean: 0.00257678 max: 0.0210386 velocity magnitude: 0.00749992
BiCGStab:  Solving for Ux, Initial residual = 2.93127e-05, Final residual = 1.73515e-11, No Iterations 1
BiCGStab:  Solving for Uy, Initial residual = 7.54673e-05, Final residual = 2.99104e-11, No Iterations 1
DICPCG:  Solving for p, Initial residual = 0.000246015, Final residual = 2.36736e-05, No Iterations 33
time step continuity errors : sum local = 3.89797e-13, global = 6.44669e-15, cumulative = 4.2976e-08
DICPCG:  Solving for p, Initial residual = 4.02041e-05, Final residual = 3.79283e-06, No Iterations 135
time step continuity errors : sum local = 6.24459e-14, global = 2.69245e-16, cumulative = 4.2976e-08
ExecutionTime = 253.54 s  ClockTime = 255 s

Time = 6.37

Courant Number mean: 0.00257676 max: 0.0210363 velocity magnitude: 0.00749948
BiCGStab:  Solving for Ux, Initial residual = 2.92916e-05, Final residual = 1.73354e-11, No Iterations 1
BiCGStab:  Solving for Uy, Initial residual = 7.54454e-05, Final residual = 2.98783e-11, No Iterations 1
DICPCG:  Solving for p, Initial residual = 0.000246643, Final residual = 2.41519e-05, No Iterations 33
time step continuity errors : sum local = 3.9764e-13, global = -4.5942e-16, cumulative = 4.2976e-08
DICPCG:  Solving for p, Initial residual = 4.07238e-05, Final residual = 4.0566e-06, No Iterations 54
time step continuity errors : sum local = 6.67834e-14, global = 6.22592e-15, cumulative = 4.2976e-08
ExecutionTime = 253.68 s  ClockTime = 255 s

Time = 6.375

Courant Number mean: 0.00257675 max: 0.021034 velocity magnitude: 0.00749904
BiCGStab:  Solving for Ux, Initial residual = 2.9272e-05, Final residual = 1.73195e-11, No Iterations 1
BiCGStab:  Solving for Uy, Initial residual = 7.54218e-05, Final residual = 2.98454e-11, No Iterations 1
DICPCG:  Solving for p, Initial residual = 0.000245898, Final residual = 2.39207e-05, No Iterations 33
