/*---------------------------------------------------------------------------*\
| =========                 |                                                 |
| \\      /  F ield         | foam-extend: Open Source CFD                    |
|  \\    /   O peration     | Version:     4.0                                |
|   \\  /    A nd           | Web:         http://www.foam-extend.org         |
|    \\/     M anipulation  | For copyright notice see file Copyright         |
\*---------------------------------------------------------------------------*/
Build    : 4.0-268bb07d15d8
Exec     : pisoFoam
Date     : Sep 25 2019
Time     : 12:47:30
Host     : magnus-ThinkPad-X240
PID      : 20159
CtrlDict : "/home/magnus/foam/magnus-4.0/applications/solvers/projection/rk4projectionFoam/example/NEW_piso/system/controlDict"
Case     : /home/magnus/foam/magnus-4.0/applications/solvers/projection/rk4projectionFoam/example/NEW_piso
nProcs   : 1
SigFpe   : Enabling floating point exception trapping (FOAM_SIGFPE).

// * * * * * * * * * * * * * * * * * * * * * * * * * * * * * * * * * * * * * //
Create time

Create mesh for time = 100


PISO: Operating solver in PISO mode

Reading field p

Reading field U

Reading/calculating face flux field phi

Selecting incompressible transport model Newtonian
Selecting turbulence model type laminar

Starting time loop

Searching for probe point locations
--> FOAM Warning : 
    From function void forces::read(const dictionary& dict)
    in file forces/forces.C at line 277
    Could not find U, p or rho in database.
    De-activating forces.
Time = 100.005

Courant Number mean: 0.00257384 max: 0.0159035 velocity magnitude: 0.00620198
BiCGStab:  Solving for Ux, Initial residual = 6.69792e-06, Final residual = 6.69792e-06, No Iterations 0
BiCGStab:  Solving for Uy, Initial residual = 1.73913e-05, Final residual = 1.4897e-13, No Iterations 1
DICPCG:  Solving for p, Initial residual = 0.158998, Final residual = 0.00770667, No Iterations 2
time step continuity errors : sum local = 1.42099e-10, global = 1.09094e-12, cumulative = 1.09094e-12
DICPCG:  Solving for p, Initial residual = 0.00787312, Final residual = 0.000706955, No Iterations 8
time step continuity errors : sum local = 1.46638e-11, global = 6.11256e-13, cumulative = 1.7022e-12
ExecutionTime = 0.39 s  ClockTime = 1 s

Time = 100.01

Courant Number mean: 0.00257384 max: 0.0159034 velocity magnitude: 0.00620197
BiCGStab:  Solving for Ux, Initial residual = 6.83038e-06, Final residual = 6.83038e-06, No Iterations 0
BiCGStab:  Solving for Uy, Initial residual = 1.8011e-05, Final residual = 1.52053e-13, No Iterations 1
DICPCG:  Solving for p, Initial residual = 0.15949, Final residual = 0.0077872, No Iterations 2
time step continuity errors : sum local = 1.43674e-10, global = 8.20617e-14, cumulative = 1.78426e-12
DICPCG:  Solving for p, Initial residual = 0.0101424, Final residual = 0.00071974, No Iterations 7
time step continuity errors : sum local = 1.17099e-11, global = 4.48856e-13, cumulative = 2.23311e-12
ExecutionTime = 0.46 s  ClockTime = 1 s

Time = 100.015

Courant Number mean: 0.00257384 max: 0.0159034 velocity magnitude: 0.00620196
BiCGStab:  Solving for Ux, Initial residual = 6.69837e-06, Final residual = 6.69837e-06, No Iterations 0
BiCGStab:  Solving for Uy, Initial residual = 1.73864e-05, Final residual = 1.48093e-13, No Iterations 1
DICPCG:  Solving for p, Initial residual = 0.00192081, Final residual = 0.000187243, No Iterations 127
time step continuity errors : sum local = 3.03582e-12, global = 4.78815e-15, cumulative = 2.2379e-12
DICPCG:  Solving for p, Initial residual = 0.00063443, Final residual = 6.14877e-05, No Iterations 169
time step continuity errors : sum local = 1.00031e-12, global = 3.26689e-15, cumulative = 2.24117e-12
ExecutionTime = 0.73 s  ClockTime = 1 s

Time = 100.02

Courant Number mean: 0.00257384 max: 0.0159034 velocity magnitude: 0.00620195
BiCGStab:  Solving for Ux, Initial residual = 6.68723e-06, Final residual = 6.68723e-06, No Iterations 0
BiCGStab:  Solving for Uy, Initial residual = 1.73892e-05, Final residual = 1.5083e-13, No Iterations 1
DICPCG:  Solving for p, Initial residual = 0.001004, Final residual = 0.000100221, No Iterations 65
time step continuity errors : sum local = 1.6275e-12, global = 6.13393e-14, cumulative = 2.30251e-12
DICPCG:  Solving for p, Initial residual = 0.000523917, Final residual = 5.09021e-05, No Iterations 146
time step continuity errors : sum local = 8.26518e-13, global = 2.77138e-15, cumulative = 2.30528e-12
ExecutionTime = 0.94 s  ClockTime = 1 s

Time = 100.025

Courant Number mean: 0.00257384 max: 0.0159033 velocity magnitude: 0.00620194
BiCGStab:  Solving for Ux, Initial residual = 6.69673e-06, Final residual = 6.69673e-06, No Iterations 0
BiCGStab:  Solving for Uy, Initial residual = 1.73881e-05, Final residual = 1.49204e-13, No Iterations 1
DICPCG:  Solving for p, Initial residual = 0.000525168, Final residual = 5.10716e-05, No Iterations 148
time step continuity errors : sum local = 8.27944e-13, global = -5.32345e-15, cumulative = 2.29996e-12
DICPCG:  Solving for p, Initial residual = 0.000499773, Final residual = 4.70853e-05, No Iterations 148
time step continuity errors : sum local = 7.64776e-13, global = 4.94795e-15, cumulative = 2.30491e-12
ExecutionTime = 1.21 s  ClockTime = 1 s

Time = 100.03

Courant Number mean: 0.00257384 max: 0.0159033 velocity magnitude: 0.00620194
BiCGStab:  Solving for Ux, Initial residual = 6.69696e-06, Final residual = 6.69696e-06, No Iterations 0
BiCGStab:  Solving for Uy, Initial residual = 1.7387e-05, Final residual = 1.49166e-13, No Iterations 1
DICPCG:  Solving for p, Initial residual = 0.000529801, Final residual = 5.29212e-05, No Iterations 147
time step continuity errors : sum local = 8.57902e-13, global = -4.40754e-15, cumulative = 2.3005e-12
DICPCG:  Solving for p, Initial residual = 0.000503435, Final residual = 4.73042e-05, No Iterations 148
time step continuity errors : sum local = 7.68333e-13, global = 5.36762e-15, cumulative = 2.30587e-12
ExecutionTime = 1.47 s  ClockTime = 2 s

Time = 100.035

Courant Number mean: 0.00257384 max: 0.0159033 velocity magnitude: 0.00620193
BiCGStab:  Solving for Ux, Initial residual = 6.69688e-06, Final residual = 6.69688e-06, No Iterations 0
BiCGStab:  Solving for Uy, Initial residual = 1.73867e-05, Final residual = 1.48934e-13, No Iterations 1
DICPCG:  Solving for p, Initial residual = 0.000508997, Final residual = 5.08632e-05, No Iterations 148
time step continuity errors : sum local = 8.24535e-13, global = -4.08492e-15, cumulative = 2.30178e-12
DICPCG:  Solving for p, Initial residual = 0.000503096, Final residual = 4.9099e-05, No Iterations 148
time step continuity errors : sum local = 7.97476e-13, global = 4.3832e-15, cumulative = 2.30616e-12
ExecutionTime = 1.73 s  ClockTime = 2 s

Time = 100.04

Courant Number mean: 0.00257384 max: 0.0159032 velocity magnitude: 0.00620192
BiCGStab:  Solving for Ux, Initial residual = 6.69669e-06, Final residual = 6.69669e-06, No Iterations 0
BiCGStab:  Solving for Uy, Initial residual = 1.73859e-05, Final residual = 1.48927e-13, No Iterations 1
DICPCG:  Solving for p, Initial residual = 0.000506965, Final residual = 5.0484e-05, No Iterations 149
time step continuity errors : sum local = 8.18384e-13, global = -3.73181e-15, cumulative = 2.30243e-12
DICPCG:  Solving for p, Initial residual = 0.000502715, Final residual = 4.79751e-05, No Iterations 149
time step continuity errors : sum local = 7.79208e-13, global = 4.29086e-15, cumulative = 2.30672e-12
ExecutionTime = 2.01 s  ClockTime = 3 s

Time = 100.045

Courant Number mean: 0.00257384 max: 0.0159032 velocity magnitude: 0.00620191
BiCGStab:  Solving for Ux, Initial residual = 6.69648e-06, Final residual = 6.69648e-06, No Iterations 0
BiCGStab:  Solving for Uy, Initial residual = 1.7385e-05, Final residual = 1.48978e-13, No Iterations 1
DICPCG:  Solving for p, Initial residual = 0.000520056, Final residual = 4.98246e-05, No Iterations 150
time step continuity errors : sum local = 8.07689e-13, global = -3.45853e-15, cumulative = 2.30326e-12
DICPCG:  Solving for p, Initial residual = 0.000501486, Final residual = 4.75863e-05, No Iterations 150
time step continuity errors : sum local = 7.72881e-13, global = 4.17957e-15, cumulative = 2.30744e-12
ExecutionTime = 2.28 s  ClockTime = 3 s

Time = 100.05

Courant Number mean: 0.00257384 max: 0.0159032 velocity magnitude: 0.0062019
BiCGStab:  Solving for Ux, Initial residual = 6.69632e-06, Final residual = 6.69632e-06, No Iterations 0
BiCGStab:  Solving for Uy, Initial residual = 1.7384e-05, Final residual = 1.48946e-13, No Iterations 1
DICPCG:  Solving for p, Initial residual = 0.000521438, Final residual = 5.17464e-05, No Iterations 149
time step continuity errors : sum local = 8.38834e-13, global = -2.40668e-15, cumulative = 2.30504e-12
DICPCG:  Solving for p, Initial residual = 0.000502686, Final residual = 4.99149e-05, No Iterations 149
time step continuity errors : sum local = 8.1069e-13, global = 3.57742e-15, cumulative = 2.30861e-12
ExecutionTime = 2.58 s  ClockTime = 4 s

Time = 100.055

Courant Number mean: 0.00257384 max: 0.0159031 velocity magnitude: 0.00620189
BiCGStab:  Solving for Ux, Initial residual = 6.69619e-06, Final residual = 6.69619e-06, No Iterations 0
BiCGStab:  Solving for Uy, Initial residual = 1.73832e-05, Final residual = 1.48918e-13, No Iterations 1
DICPCG:  Solving for p, Initial residual = 0.00051838, Final residual = 4.94842e-05, No Iterations 149
time step continuity errors : sum local = 8.02154e-13, global = -3.08663e-15, cumulative = 2.30553e-12
DICPCG:  Solving for p, Initial residual = 0.000501603, Final residual = 4.97599e-05, No Iterations 149
time step continuity errors : sum local = 8.0817e-13, global = 3.65091e-15, cumulative = 2.30918e-12
ExecutionTime = 2.86 s  ClockTime = 4 s

Time = 100.06

Courant Number mean: 0.00257384 max: 0.0159031 velocity magnitude: 0.00620188
BiCGStab:  Solving for Ux, Initial residual = 6.69603e-06, Final residual = 6.69603e-06, No Iterations 0
BiCGStab:  Solving for Uy, Initial residual = 1.73823e-05, Final residual = 1.48884e-13, No Iterations 1
DICPCG:  Solving for p, Initial residual = 0.00050517, Final residual = 4.90505e-05, No Iterations 149
time step continuity errors : sum local = 7.95116e-13, global = -4.07622e-15, cumulative = 2.3051e-12
DICPCG:  Solving for p, Initial residual = 0.000501567, Final residual = 4.80155e-05, No Iterations 149
time step continuity errors : sum local = 7.79836e-13, global = 4.21465e-15, cumulative = 2.30932e-12
ExecutionTime = 3.12 s  ClockTime = 4 s

Time = 100.065

Courant Number mean: 0.00257384 max: 0.0159031 velocity magnitude: 0.00620187
BiCGStab:  Solving for Ux, Initial residual = 6.69586e-06, Final residual = 6.69586e-06, No Iterations 0
BiCGStab:  Solving for Uy, Initial residual = 1.73815e-05, Final residual = 1.48863e-13, No Iterations 1
DICPCG:  Solving for p, Initial residual = 0.000503512, Final residual = 4.9789e-05, No Iterations 148
time step continuity errors : sum local = 8.07081e-13, global = -3.15986e-15, cumulative = 2.30616e-12
DICPCG:  Solving for p, Initial residual = 0.000502207, Final residual = 4.68969e-05, No Iterations 149
time step continuity errors : sum local = 7.61667e-13, global = 4.93275e-15, cumulative = 2.31109e-12
ExecutionTime = 3.39 s  ClockTime = 4 s

Time = 100.07

Courant Number mean: 0.00257384 max: 0.015903 velocity magnitude: 0.00620186
BiCGStab:  Solving for Ux, Initial residual = 6.69568e-06, Final residual = 6.69568e-06, No Iterations 0
BiCGStab:  Solving for Uy, Initial residual = 1.73808e-05, Final residual = 1.4884e-13, No Iterations 1
DICPCG:  Solving for p, Initial residual = 0.00050769, Final residual = 5.06345e-05, No Iterations 148
time step continuity errors : sum local = 8.20781e-13, global = -3.82594e-15, cumulative = 2.30726e-12
DICPCG:  Solving for p, Initial residual = 0.000502095, Final residual = 4.93349e-05, No Iterations 148
time step continuity errors : sum local = 8.01261e-13, global = 3.95423e-15, cumulative = 2.31122e-12
ExecutionTime = 3.66 s  ClockTime = 5 s

Time = 100.075

Courant Number mean: 0.00257384 max: 0.015903 velocity magnitude: 0.00620185
BiCGStab:  Solving for Ux, Initial residual = 6.69552e-06, Final residual = 6.69552e-06, No Iterations 0
BiCGStab:  Solving for Uy, Initial residual = 1.738e-05, Final residual = 1.48782e-13, No Iterations 1
DICPCG:  Solving for p, Initial residual = 0.000519281, Final residual = 4.97979e-05, No Iterations 148
time step continuity errors : sum local = 8.07216e-13, global = -4.30313e-15, cumulative = 2.30692e-12
DICPCG:  Solving for p, Initial residual = 0.000502082, Final residual = 4.92005e-05, No Iterations 148
time step continuity errors : sum local = 7.99072e-13, global = 4.0158e-15, cumulative = 2.31093e-12
ExecutionTime = 3.92 s  ClockTime = 5 s

Time = 100.08

Courant Number mean: 0.00257384 max: 0.015903 velocity magnitude: 0.00620184
BiCGStab:  Solving for Ux, Initial residual = 6.69533e-06, Final residual = 6.69533e-06, No Iterations 0
BiCGStab:  Solving for Uy, Initial residual = 1.73792e-05, Final residual = 1.48797e-13, No Iterations 1
DICPCG:  Solving for p, Initial residual = 0.000506344, Final residual = 4.97324e-05, No Iterations 148
time step continuity errors : sum local = 8.06149e-13, global = -3.80597e-15, cumulative = 2.30712e-12
DICPCG:  Solving for p, Initial residual = 0.000501488, Final residual = 4.9182e-05, No Iterations 148
time step continuity errors : sum local = 7.98767e-13, global = 3.87982e-15, cumulative = 2.311e-12
ExecutionTime = 4.2 s  ClockTime = 5 s

Time = 100.085

Courant Number mean: 0.00257384 max: 0.0159029 velocity magnitude: 0.00620183
BiCGStab:  Solving for Ux, Initial residual = 6.69515e-06, Final residual = 6.69515e-06, No Iterations 0
BiCGStab:  Solving for Uy, Initial residual = 1.73783e-05, Final residual = 1.48777e-13, No Iterations 1
DICPCG:  Solving for p, Initial residual = 0.000507961, Final residual = 5.05222e-05, No Iterations 148
time step continuity errors : sum local = 8.18945e-13, global = -3.60009e-15, cumulative = 2.3074e-12
DICPCG:  Solving for p, Initial residual = 0.000501589, Final residual = 4.95287e-05, No Iterations 148
time step continuity errors : sum local = 8.04391e-13, global = 3.75782e-15, cumulative = 2.31116e-12
ExecutionTime = 4.5 s  ClockTime = 5 s

Time = 100.09

Courant Number mean: 0.00257384 max: 0.0159029 velocity magnitude: 0.00620182
BiCGStab:  Solving for Ux, Initial residual = 6.69497e-06, Final residual = 6.69497e-06, No Iterations 0
BiCGStab:  Solving for Uy, Initial residual = 1.73775e-05, Final residual = 1.4877e-13, No Iterations 1
DICPCG:  Solving for p, Initial residual = 0.000507158, Final residual = 5.06681e-05, No Iterations 148
time step continuity errors : sum local = 8.21305e-13, global = -3.26136e-15, cumulative = 2.3079e-12
DICPCG:  Solving for p, Initial residual = 0.000501632, Final residual = 4.96171e-05, No Iterations 148
time step continuity errors : sum local = 8.05821e-13, global = 3.54531e-15, cumulative = 2.31145e-12
ExecutionTime = 4.77 s  ClockTime = 6 s

Time = 100.095

Courant Number mean: 0.00257384 max: 0.0159029 velocity magnitude: 0.00620181
BiCGStab:  Solving for Ux, Initial residual = 6.6948e-06, Final residual = 6.6948e-06, No Iterations 0
BiCGStab:  Solving for Uy, Initial residual = 1.73767e-05, Final residual = 1.4876e-13, No Iterations 1
DICPCG:  Solving for p, Initial residual = 0.000508952, Final residual = 4.85874e-05, No Iterations 149
time step continuity errors : sum local = 7.87577e-13, global = -4.40285e-15, cumulative = 2.30704e-12
DICPCG:  Solving for p, Initial residual = 0.00050143, Final residual = 4.68913e-05, No Iterations 149
time step continuity errors : sum local = 7.61552e-13, global = 4.87382e-15, cumulative = 2.31192e-12
ExecutionTime = 5.03 s  ClockTime = 6 s

Time = 100.1

Courant Number mean: 0.00257384 max: 0.0159028 velocity magnitude: 0.0062018
BiCGStab:  Solving for Ux, Initial residual = 6.69462e-06, Final residual = 6.69462e-06, No Iterations 0
BiCGStab:  Solving for Uy, Initial residual = 1.73759e-05, Final residual = 1.48809e-13, No Iterations 1
DICPCG:  Solving for p, Initial residual = 0.000525687, Final residual = 5.13714e-05, No Iterations 148
time step continuity errors : sum local = 8.32698e-13, global = -2.79156e-15, cumulative = 2.30913e-12
DICPCG:  Solving for p, Initial residual = 0.000503108, Final residual = 4.65948e-05, No Iterations 149
time step continuity errors : sum local = 7.56723e-13, global = 4.68732e-15, cumulative = 2.31381e-12
ExecutionTime = 5.39 s  ClockTime = 6 s

Time = 100.105

Courant Number mean: 0.00257384 max: 0.0159028 velocity magnitude: 0.00620179
BiCGStab:  Solving for Ux, Initial residual = 6.69446e-06, Final residual = 6.69446e-06, No Iterations 0
BiCGStab:  Solving for Uy, Initial residual = 1.7375e-05, Final residual = 1.48753e-13, No Iterations 1
DICPCG:  Solving for p, Initial residual = 0.000507682, Final residual = 4.8056e-05, No Iterations 149
time step continuity errors : sum local = 7.78949e-13, global = -4.18816e-15, cumulative = 2.30963e-12
DICPCG:  Solving for p, Initial residual = 0.000500537, Final residual = 4.68443e-05, No Iterations 149
time step continuity errors : sum local = 7.6077e-13, global = 4.51723e-15, cumulative = 2.31414e-12
ExecutionTime = 5.7 s  ClockTime = 7 s

Time = 100.11

Courant Number mean: 0.00257384 max: 0.0159028 velocity magnitude: 0.00620178
BiCGStab:  Solving for Ux, Initial residual = 6.6943e-06, Final residual = 6.6943e-06, No Iterations 0
BiCGStab:  Solving for Uy, Initial residual = 1.73741e-05, Final residual = 1.4875e-13, No Iterations 1
DICPCG:  Solving for p, Initial residual = 0.00050551, Final residual = 4.70605e-05, No Iterations 149
time step continuity errors : sum local = 7.62807e-13, global = -4.35615e-15, cumulative = 2.30979e-12
DICPCG:  Solving for p, Initial residual = 0.000500142, Final residual = 4.77921e-05, No Iterations 149
time step continuity errors : sum local = 7.76159e-13, global = 4.51085e-15, cumulative = 2.3143e-12
ExecutionTime = 5.97 s  ClockTime = 7 s

Time = 100.115

Courant Number mean: 0.00257384 max: 0.0159027 velocity magnitude: 0.00620177
BiCGStab:  Solving for Ux, Initial residual = 6.69413e-06, Final residual = 6.69413e-06, No Iterations 0
BiCGStab:  Solving for Uy, Initial residual = 1.73733e-05, Final residual = 1.48735e-13, No Iterations 1
DICPCG:  Solving for p, Initial residual = 0.000503724, Final residual = 4.69059e-05, No Iterations 149
time step continuity errors : sum local = 7.60297e-13, global = -4.73348e-15, cumulative = 2.30956e-12
DICPCG:  Solving for p, Initial residual = 0.000499888, Final residual = 4.58039e-05, No Iterations 149
time step continuity errors : sum local = 7.43865e-13, global = 4.92617e-15, cumulative = 2.31449e-12
ExecutionTime = 6.23 s  ClockTime = 7 s

Time = 100.12

Courant Number mean: 0.00257384 max: 0.0159027 velocity magnitude: 0.00620176
BiCGStab:  Solving for Ux, Initial residual = 6.69396e-06, Final residual = 6.69396e-06, No Iterations 0
BiCGStab:  Solving for Uy, Initial residual = 1.73725e-05, Final residual = 1.4873e-13, No Iterations 1
DICPCG:  Solving for p, Initial residual = 0.000503738, Final residual = 4.69189e-05, No Iterations 149
time step continuity errors : sum local = 7.60503e-13, global = -4.80634e-15, cumulative = 2.30968e-12
DICPCG:  Solving for p, Initial residual = 0.000499624, Final residual = 4.64298e-05, No Iterations 149
time step continuity errors : sum local = 7.54027e-13, global = 4.90086e-15, cumulative = 2.31458e-12
ExecutionTime = 6.51 s  ClockTime = 7 s

Time = 100.125

Courant Number mean: 0.00257384 max: 0.0159027 velocity magnitude: 0.00620175
BiCGStab:  Solving for Ux, Initial residual = 6.69379e-06, Final residual = 6.69379e-06, No Iterations 0
BiCGStab:  Solving for Uy, Initial residual = 1.73717e-05, Final residual = 1.48712e-13, No Iterations 1
DICPCG:  Solving for p, Initial residual = 0.000505267, Final residual = 5.04444e-05, No Iterations 148
time step continuity errors : sum local = 8.17641e-13, global = -3.52834e-15, cumulative = 2.31106e-12
DICPCG:  Solving for p, Initial residual = 0.000500952, Final residual = 4.68418e-05, No Iterations 149
time step continuity errors : sum local = 7.60714e-13, global = 4.91421e-15, cumulative = 2.31597e-12
ExecutionTime = 6.79 s  ClockTime = 8 s

Time = 100.13

Courant Number mean: 0.00257384 max: 0.0159026 velocity magnitude: 0.00620175
BiCGStab:  Solving for Ux, Initial residual = 6.69361e-06, Final residual = 6.69361e-06, No Iterations 0
BiCGStab:  Solving for Uy, Initial residual = 1.73708e-05, Final residual = 1.48695e-13, No Iterations 1
DICPCG:  Solving for p, Initial residual = 0.000505512, Final residual = 4.6164e-05, No Iterations 149
time step continuity errors : sum local = 7.48257e-13, global = -5.10859e-15, cumulative = 2.31086e-12
DICPCG:  Solving for p, Initial residual = 0.000499747, Final residual = 4.88928e-05, No Iterations 148
time step continuity errors : sum local = 7.94018e-13, global = 3.85275e-15, cumulative = 2.31471e-12
ExecutionTime = 7.13 s  ClockTime = 8 s

Time = 100.135

Courant Number mean: 0.00257384 max: 0.0159026 velocity magnitude: 0.00620174
BiCGStab:  Solving for Ux, Initial residual = 6.69346e-06, Final residual = 6.69346e-06, No Iterations 0
BiCGStab:  Solving for Uy, Initial residual = 1.73701e-05, Final residual = 1.48662e-13, No Iterations 1
DICPCG:  Solving for p, Initial residual = 0.000514042, Final residual = 5.03223e-05, No Iterations 148
time step continuity errors : sum local = 8.15654e-13, global = -3.18605e-15, cumulative = 2.31153e-12
DICPCG:  Solving for p, Initial residual = 0.000500452, Final residual = 4.71214e-05, No Iterations 149
time step continuity errors : sum local = 7.65246e-13, global = 5.04229e-15, cumulative = 2.31657e-12
ExecutionTime = 7.45 s  ClockTime = 8 s

Time = 100.14

Courant Number mean: 0.00257384 max: 0.0159026 velocity magnitude: 0.00620173
BiCGStab:  Solving for Ux, Initial residual = 6.69326e-06, Final residual = 6.69326e-06, No Iterations 0
BiCGStab:  Solving for Uy, Initial residual = 1.73692e-05, Final residual = 1.48693e-13, No Iterations 1
DICPCG:  Solving for p, Initial residual = 0.000512091, Final residual = 5.09056e-05, No Iterations 148
time step continuity errors : sum local = 8.25104e-13, global = -3.36054e-15, cumulative = 2.31321e-12
DICPCG:  Solving for p, Initial residual = 0.000500604, Final residual = 4.98586e-05, No Iterations 148
time step continuity errors : sum local = 8.09692e-13, global = 3.51518e-15, cumulative = 2.31673e-12
ExecutionTime = 7.74 s  ClockTime = 9 s

Time = 100.145

Courant Number mean: 0.00257384 max: 0.0159025 velocity magnitude: 0.00620172
BiCGStab:  Solving for Ux, Initial residual = 6.69311e-06, Final residual = 6.69311e-06, No Iterations 0
BiCGStab:  Solving for Uy, Initial residual = 1.73685e-05, Final residual = 1.48621e-13, No Iterations 1
DICPCG:  Solving for p, Initial residual = 0.000516528, Final residual = 5.07969e-05, No Iterations 148
time step continuity errors : sum local = 8.23337e-13, global = -3.365e-15, cumulative = 2.31336e-12
DICPCG:  Solving for p, Initial residual = 0.000500572, Final residual = 4.68189e-05, No Iterations 149
time step continuity errors : sum local = 7.60322e-13, global = 4.86422e-15, cumulative = 2.31822e-12
ExecutionTime = 8.01 s  ClockTime = 9 s

Time = 100.15

Courant Number mean: 0.00257384 max: 0.0159025 velocity magnitude: 0.00620171
BiCGStab:  Solving for Ux, Initial residual = 6.69292e-06, Final residual = 6.69292e-06, No Iterations 0
BiCGStab:  Solving for Uy, Initial residual = 1.73676e-05, Final residual = 1.48686e-13, No Iterations 1
DICPCG:  Solving for p, Initial residual = 0.000521026, Final residual = 5.18245e-05, No Iterations 148
time step continuity errors : sum local = 8.39988e-13, global = -2.99318e-15, cumulative = 2.31523e-12
DICPCG:  Solving for p, Initial residual = 0.000501115, Final residual = 4.61226e-05, No Iterations 149
time step continuity errors : sum local = 7.4901e-13, global = 4.77838e-15, cumulative = 2.32001e-12
ExecutionTime = 8.35 s  ClockTime = 9 s

Time = 100.155

Courant Number mean: 0.00257384 max: 0.0159025 velocity magnitude: 0.0062017
BiCGStab:  Solving for Ux, Initial residual = 6.69277e-06, Final residual = 6.69277e-06, No Iterations 0
BiCGStab:  Solving for Uy, Initial residual = 1.73668e-05, Final residual = 1.48646e-13, No Iterations 1
DICPCG:  Solving for p, Initial residual = 0.00050709, Final residual = 4.84556e-05, No Iterations 149
time step continuity errors : sum local = 7.85379e-13, global = -4.17927e-15, cumulative = 2.31583e-12
DICPCG:  Solving for p, Initial residual = 0.000499904, Final residual = 4.59082e-05, No Iterations 149
time step continuity errors : sum local = 7.45525e-13, global = 4.93977e-15, cumulative = 2.32077e-12
ExecutionTime = 8.69 s  ClockTime = 10 s

Time = 100.16

Courant Number mean: 0.00257384 max: 0.0159024 velocity magnitude: 0.00620169
BiCGStab:  Solving for Ux, Initial residual = 6.6926e-06, Final residual = 6.6926e-06, No Iterations 0
BiCGStab:  Solving for Uy, Initial residual = 1.7366e-05, Final residual = 1.48648e-13, No Iterations 1
DICPCG:  Solving for p, Initial residual = 0.000509725, Final residual = 4.74554e-05, No Iterations 149
time step continuity errors : sum local = 7.69164e-13, global = -4.46638e-15, cumulative = 2.3163e-12
DICPCG:  Solving for p, Initial residual = 0.000500165, Final residual = 4.9215e-05, No Iterations 148
time step continuity errors : sum local = 7.99221e-13, global = 3.38194e-15, cumulative = 2.31969e-12
ExecutionTime = 9.03 s  ClockTime = 10 s

Time = 100.165

Courant Number mean: 0.00257384 max: 0.0159024 velocity magnitude: 0.00620168
BiCGStab:  Solving for Ux, Initial residual = 6.69244e-06, Final residual = 6.69244e-06, No Iterations 0
BiCGStab:  Solving for Uy, Initial residual = 1.73652e-05, Final residual = 1.4859e-13, No Iterations 1
DICPCG:  Solving for p, Initial residual = 0.000524805, Final residual = 5.21328e-05, No Iterations 148
time step continuity errors : sum local = 8.44971e-13, global = -3.0145e-15, cumulative = 2.31667e-12
DICPCG:  Solving for p, Initial residual = 0.000500151, Final residual = 4.95701e-05, No Iterations 148
time step continuity errors : sum local = 8.04983e-13, global = 3.48088e-15, cumulative = 2.32015e-12
ExecutionTime = 9.33 s  ClockTime = 10 s

Time = 100.17

Courant Number mean: 0.00257384 max: 0.0159024 velocity magnitude: 0.00620167
BiCGStab:  Solving for Ux, Initial residual = 6.69225e-06, Final residual = 6.69225e-06, No Iterations 0
BiCGStab:  Solving for Uy, Initial residual = 1.73643e-05, Final residual = 1.48604e-13, No Iterations 1
DICPCG:  Solving for p, Initial residual = 0.000508049, Final residual = 4.83056e-05, No Iterations 149
time step continuity errors : sum local = 7.82935e-13, global = -4.42593e-15, cumulative = 2.31573e-12
DICPCG:  Solving for p, Initial residual = 0.000499168, Final residual = 4.62047e-05, No Iterations 149
time step continuity errors : sum local = 7.50326e-13, global = 4.91478e-15, cumulative = 2.32064e-12
ExecutionTime = 9.6 s  ClockTime = 11 s

Time = 100.175

Courant Number mean: 0.00257384 max: 0.0159023 velocity magnitude: 0.00620166
BiCGStab:  Solving for Ux, Initial residual = 6.69208e-06, Final residual = 6.69208e-06, No Iterations 0
BiCGStab:  Solving for Uy, Initial residual = 1.73634e-05, Final residual = 1.48643e-13, No Iterations 1
DICPCG:  Solving for p, Initial residual = 0.000520843, Final residual = 5.15788e-05, No Iterations 148
time step continuity errors : sum local = 8.3598e-13, global = -2.88852e-15, cumulative = 2.31775e-12
DICPCG:  Solving for p, Initial residual = 0.00050068, Final residual = 4.65614e-05, No Iterations 149
time step continuity errors : sum local = 7.56116e-13, global = 5.14603e-15, cumulative = 2.3229e-12
ExecutionTime = 9.87 s  ClockTime = 11 s

Time = 100.18

Courant Number mean: 0.00257384 max: 0.0159023 velocity magnitude: 0.00620165
BiCGStab:  Solving for Ux, Initial residual = 6.69192e-06, Final residual = 6.69192e-06, No Iterations 0
BiCGStab:  Solving for Uy, Initial residual = 1.73627e-05, Final residual = 1.48599e-13, No Iterations 1
DICPCG:  Solving for p, Initial residual = 0.000505195, Final residual = 4.7176e-05, No Iterations 149
time step continuity errors : sum local = 7.64617e-13, global = -4.60233e-15, cumulative = 2.3183e-12
DICPCG:  Solving for p, Initial residual = 0.000499683, Final residual = 4.90671e-05, No Iterations 148
time step continuity errors : sum local = 7.96801e-13, global = 3.4485e-15, cumulative = 2.32174e-12
ExecutionTime = 10.2 s  ClockTime = 11 s

Time = 100.185

Courant Number mean: 0.00257384 max: 0.0159023 velocity magnitude: 0.00620164
BiCGStab:  Solving for Ux, Initial residual = 6.69177e-06, Final residual = 6.69177e-06, No Iterations 0
BiCGStab:  Solving for Uy, Initial residual = 1.73619e-05, Final residual = 1.48551e-13, No Iterations 1
DICPCG:  Solving for p, Initial residual = 0.00052888, Final residual = 5.13708e-05, No Iterations 148
time step continuity errors : sum local = 8.32603e-13, global = -3.023e-15, cumulative = 2.31872e-12
DICPCG:  Solving for p, Initial residual = 0.000499989, Final residual = 4.98506e-05, No Iterations 148
time step continuity errors : sum local = 8.09523e-13, global = 3.42421e-15, cumulative = 2.32215e-12
ExecutionTime = 10.56 s  ClockTime = 11 s

Time = 100.19

Courant Number mean: 0.00257384 max: 0.0159022 velocity magnitude: 0.00620163
BiCGStab:  Solving for Ux, Initial residual = 6.69159e-06, Final residual = 6.69159e-06, No Iterations 0
BiCGStab:  Solving for Uy, Initial residual = 1.73611e-05, Final residual = 1.48563e-13, No Iterations 1
DICPCG:  Solving for p, Initial residual = 0.000510184, Final residual = 4.77795e-05, No Iterations 149
time step continuity errors : sum local = 7.74392e-13, global = -4.58272e-15, cumulative = 2.31756e-12
DICPCG:  Solving for p, Initial residual = 0.000498847, Final residual = 4.96178e-05, No Iterations 148
time step continuity errors : sum local = 8.05737e-13, global = 3.55439e-15, cumulative = 2.32112e-12
ExecutionTime = 10.84 s  ClockTime = 12 s

Time = 100.195

Courant Number mean: 0.00257384 max: 0.0159022 velocity magnitude: 0.00620162
BiCGStab:  Solving for Ux, Initial residual = 6.69142e-06, Final residual = 6.69142e-06, No Iterations 0
BiCGStab:  Solving for Uy, Initial residual = 1.73603e-05, Final residual = 1.4857e-13, No Iterations 1
DICPCG:  Solving for p, Initial residual = 0.000509999, Final residual = 4.79022e-05, No Iterations 149
time step continuity errors : sum local = 7.76375e-13, global = -4.39368e-15, cumulative = 2.31672e-12
DICPCG:  Solving for p, Initial residual = 0.000499345, Final residual = 4.62974e-05, No Iterations 149
time step continuity errors : sum local = 7.51812e-13, global = 4.99114e-15, cumulative = 2.32171e-12
ExecutionTime = 11.11 s  ClockTime = 12 s

Time = 100.2

Courant Number mean: 0.00257384 max: 0.0159021 velocity magnitude: 0.00620161
BiCGStab:  Solving for Ux, Initial residual = 6.69124e-06, Final residual = 6.69124e-06, No Iterations 0
BiCGStab:  Solving for Uy, Initial residual = 1.73593e-05, Final residual = 1.48591e-13, No Iterations 1
DICPCG:  Solving for p, Initial residual = 0.00051943, Final residual = 5.09277e-05, No Iterations 148
time step continuity errors : sum local = 8.25406e-13, global = -3.17167e-15, cumulative = 2.31854e-12
DICPCG:  Solving for p, Initial residual = 0.000500358, Final residual = 4.63332e-05, No Iterations 149
time step continuity errors : sum local = 7.52391e-13, global = 4.89985e-15, cumulative = 2.32344e-12
ExecutionTime = 11.44 s  ClockTime = 12 s

Time = 100.205

Courant Number mean: 0.00257384 max: 0.0159021 velocity magnitude: 0.0062016
BiCGStab:  Solving for Ux, Initial residual = 6.69108e-06, Final residual = 6.69108e-06, No Iterations 0
BiCGStab:  Solving for Uy, Initial residual = 1.73586e-05, Final residual = 1.48542e-13, No Iterations 1
DICPCG:  Solving for p, Initial residual = 0.000507445, Final residual = 4.83263e-05, No Iterations 149
time step continuity errors : sum local = 7.83242e-13, global = -4.65368e-15, cumulative = 2.31879e-12
DICPCG:  Solving for p, Initial residual = 0.00049947, Final residual = 4.60366e-05, No Iterations 149
time step continuity errors : sum local = 7.47572e-13, global = 4.97691e-15, cumulative = 2.32377e-12
ExecutionTime = 11.7 s  ClockTime = 13 s

Time = 100.21

Courant Number mean: 0.00257384 max: 0.0159021 velocity magnitude: 0.00620159
BiCGStab:  Solving for Ux, Initial residual = 6.69091e-06, Final residual = 6.69091e-06, No Iterations 0
BiCGStab:  Solving for Uy, Initial residual = 1.73577e-05, Final residual = 1.48543e-13, No Iterations 1
DICPCG:  Solving for p, Initial residual = 0.000504244, Final residual = 4.61392e-05, No Iterations 149
time step continuity errors : sum local = 7.4779e-13, global = -4.68265e-15, cumulative = 2.31908e-12
DICPCG:  Solving for p, Initial residual = 0.000498541, Final residual = 4.95102e-05, No Iterations 148
time step continuity errors : sum local = 8.03974e-13, global = 3.54331e-15, cumulative = 2.32263e-12
ExecutionTime = 11.98 s  ClockTime = 13 s

Time = 100.215

Courant Number mean: 0.00257384 max: 0.015902 velocity magnitude: 0.00620158
BiCGStab:  Solving for Ux, Initial residual = 6.69076e-06, Final residual = 6.69076e-06, No Iterations 0
BiCGStab:  Solving for Uy, Initial residual = 1.7357e-05, Final residual = 1.48489e-13, No Iterations 1
DICPCG:  Solving for p, Initial residual = 0.000523414, Final residual = 5.15004e-05, No Iterations 148
time step continuity errors : sum local = 8.34677e-13, global = -3.16564e-15, cumulative = 2.31946e-12
DICPCG:  Solving for p, Initial residual = 0.00049941, Final residual = 4.74304e-05, No Iterations 149
time step continuity errors : sum local = 7.70196e-13, global = 4.79726e-15, cumulative = 2.32426e-12
ExecutionTime = 12.28 s  ClockTime = 13 s

Time = 100.22

Courant Number mean: 0.00257384 max: 0.015902 velocity magnitude: 0.00620157
BiCGStab:  Solving for Ux, Initial residual = 6.69056e-06, Final residual = 6.69056e-06, No Iterations 0
BiCGStab:  Solving for Uy, Initial residual = 1.73561e-05, Final residual = 1.48545e-13, No Iterations 1
DICPCG:  Solving for p, Initial residual = 0.000517797, Final residual = 5.11595e-05, No Iterations 148
time step continuity errors : sum local = 8.29146e-13, global = -3.07152e-15, cumulative = 2.32119e-12
DICPCG:  Solving for p, Initial residual = 0.000499981, Final residual = 4.6747e-05, No Iterations 149
time step continuity errors : sum local = 7.59094e-13, global = 4.96544e-15, cumulative = 2.32615e-12
ExecutionTime = 12.58 s  ClockTime = 14 s

Time = 100.225

Courant Number mean: 0.00257384 max: 0.015902 velocity magnitude: 0.00620156
BiCGStab:  Solving for Ux, Initial residual = 6.6904e-06, Final residual = 6.6904e-06, No Iterations 0
BiCGStab:  Solving for Uy, Initial residual = 1.73553e-05, Final residual = 1.48503e-13, No Iterations 1
DICPCG:  Solving for p, Initial residual = 0.000505134, Final residual = 4.729e-05, No Iterations 149
time step continuity errors : sum local = 7.6643e-13, global = -4.60941e-15, cumulative = 2.32154e-12
DICPCG:  Solving for p, Initial residual = 0.000498128, Final residual = 4.97869e-05, No Iterations 148
time step continuity errors : sum local = 8.08455e-13, global = 3.49247e-15, cumulative = 2.32504e-12
ExecutionTime = 12.85 s  ClockTime = 14 s

Time = 100.23

Courant Number mean: 0.00257384 max: 0.0159019 velocity magnitude: 0.00620155
BiCGStab:  Solving for Ux, Initial residual = 6.69025e-06, Final residual = 6.69025e-06, No Iterations 0
BiCGStab:  Solving for Uy, Initial residual = 1.73546e-05, Final residual = 1.48468e-13, No Iterations 1
DICPCG:  Solving for p, Initial residual = 0.000518472, Final residual = 5.12053e-05, No Iterations 148
time step continuity errors : sum local = 8.29882e-13, global = -3.13011e-15, cumulative = 2.32191e-12
DICPCG:  Solving for p, Initial residual = 0.000499048, Final residual = 4.70295e-05, No Iterations 149
time step continuity errors : sum local = 7.63674e-13, global = 4.71429e-15, cumulative = 2.32662e-12
ExecutionTime = 13.14 s  ClockTime = 14 s

Time = 100.235

Courant Number mean: 0.00257384 max: 0.0159019 velocity magnitude: 0.00620155
BiCGStab:  Solving for Ux, Initial residual = 6.69006e-06, Final residual = 6.69006e-06, No Iterations 0
BiCGStab:  Solving for Uy, Initial residual = 1.73536e-05, Final residual = 1.48515e-13, No Iterations 1
DICPCG:  Solving for p, Initial residual = 0.000513498, Final residual = 5.0401e-05, No Iterations 148
time step continuity errors : sum local = 8.16841e-13, global = -3.15613e-15, cumulative = 2.32346e-12
DICPCG:  Solving for p, Initial residual = 0.000499803, Final residual = 4.67008e-05, No Iterations 149
time step continuity errors : sum local = 7.58332e-13, global = 4.69912e-15, cumulative = 2.32816e-12
ExecutionTime = 13.46 s  ClockTime = 14 s

Time = 100.24

Courant Number mean: 0.00257384 max: 0.0159019 velocity magnitude: 0.00620154
BiCGStab:  Solving for Ux, Initial residual = 6.6899e-06, Final residual = 6.6899e-06, No Iterations 0
BiCGStab:  Solving for Uy, Initial residual = 1.73529e-05, Final residual = 1.48475e-13, No Iterations 1
DICPCG:  Solving for p, Initial residual = 0.000503326, Final residual = 4.8062e-05, No Iterations 149
time step continuity errors : sum local = 7.78929e-13, global = -4.2069e-15, cumulative = 2.32396e-12
DICPCG:  Solving for p, Initial residual = 0.000498656, Final residual = 4.97531e-05, No Iterations 148
time step continuity errors : sum local = 8.07892e-13, global = 3.27383e-15, cumulative = 2.32723e-12
ExecutionTime = 13.73 s  ClockTime = 15 s

Time = 100.245

Courant Number mean: 0.00257384 max: 0.0159018 velocity magnitude: 0.00620153
BiCGStab:  Solving for Ux, Initial residual = 6.68975e-06, Final residual = 6.68975e-06, No Iterations 0
BiCGStab:  Solving for Uy, Initial residual = 1.73521e-05, Final residual = 1.48434e-13, No Iterations 1
DICPCG:  Solving for p, Initial residual = 0.00051848, Final residual = 5.16466e-05, No Iterations 148
time step continuity errors : sum local = 8.37022e-13, global = -3.03015e-15, cumulative = 2.3242e-12
DICPCG:  Solving for p, Initial residual = 0.000499104, Final residual = 4.78238e-05, No Iterations 149
time step continuity errors : sum local = 7.7656e-13, global = 4.5731e-15, cumulative = 2.32877e-12
ExecutionTime = 14.05 s  ClockTime = 15 s

Time = 100.25

Courant Number mean: 0.00257384 max: 0.0159018 velocity magnitude: 0.00620152
BiCGStab:  Solving for Ux, Initial residual = 6.68956e-06, Final residual = 6.68956e-06, No Iterations 0
BiCGStab:  Solving for Uy, Initial residual = 1.73512e-05, Final residual = 1.48488e-13, No Iterations 1
DICPCG:  Solving for p, Initial residual = 0.00051652, Final residual = 5.02602e-05, No Iterations 148
time step continuity errors : sum local = 8.14547e-13, global = -2.89753e-15, cumulative = 2.32588e-12
DICPCG:  Solving for p, Initial residual = 0.000499607, Final residual = 4.69091e-05, No Iterations 149
time step continuity errors : sum local = 7.61704e-13, global = 5.00973e-15, cumulative = 2.33088e-12
ExecutionTime = 14.35 s  ClockTime = 15 s

Time = 100.255

Courant Number mean: 0.00257384 max: 0.0159018 velocity magnitude: 0.00620151
BiCGStab:  Solving for Ux, Initial residual = 6.6894e-06, Final residual = 6.6894e-06, No Iterations 0
BiCGStab:  Solving for Uy, Initial residual = 1.73504e-05, Final residual = 1.48452e-13, No Iterations 1
DICPCG:  Solving for p, Initial residual = 0.000505855, Final residual = 4.96368e-05, No Iterations 148
time step continuity errors : sum local = 8.0444e-13, global = -3.20427e-15, cumulative = 2.32768e-12
DICPCG:  Solving for p, Initial residual = 0.000499866, Final residual = 4.68422e-05, No Iterations 149
time step continuity errors : sum local = 7.60613e-13, global = 4.71237e-15, cumulative = 2.33239e-12
ExecutionTime = 14.63 s  ClockTime = 16 s

Time = 100.26

Courant Number mean: 0.00257384 max: 0.0159017 velocity magnitude: 0.0062015
BiCGStab:  Solving for Ux, Initial residual = 6.68924e-06, Final residual = 6.68924e-06, No Iterations 0
BiCGStab:  Solving for Uy, Initial residual = 1.73496e-05, Final residual = 1.48435e-13, No Iterations 1
DICPCG:  Solving for p, Initial residual = 0.00050543, Final residual = 5.00742e-05, No Iterations 148
time step continuity errors : sum local = 8.11525e-13, global = -3.18527e-15, cumulative = 2.32921e-12
DICPCG:  Solving for p, Initial residual = 0.000499232, Final residual = 4.67121e-05, No Iterations 149
time step continuity errors : sum local = 7.58498e-13, global = 4.75628e-15, cumulative = 2.33396e-12
ExecutionTime = 14.93 s  ClockTime = 16 s

Time = 100.265

Courant Number mean: 0.00257384 max: 0.0159017 velocity magnitude: 0.00620149
BiCGStab:  Solving for Ux, Initial residual = 6.68907e-06, Final residual = 6.68907e-06, No Iterations 0
BiCGStab:  Solving for Uy, Initial residual = 1.73488e-05, Final residual = 1.48429e-13, No Iterations 1
DICPCG:  Solving for p, Initial residual = 0.000504023, Final residual = 4.74287e-05, No Iterations 149
time step continuity errors : sum local = 7.68647e-13, global = -4.32311e-15, cumulative = 2.32964e-12
DICPCG:  Solving for p, Initial residual = 0.000498644, Final residual = 4.61143e-05, No Iterations 149
time step continuity errors : sum local = 7.48789e-13, global = 5.04765e-15, cumulative = 2.33469e-12
ExecutionTime = 15.21 s  ClockTime = 16 s

Time = 100.27

Courant Number mean: 0.00257384 max: 0.0159017 velocity magnitude: 0.00620148
BiCGStab:  Solving for Ux, Initial residual = 6.6889e-06, Final residual = 6.6889e-06, No Iterations 0
BiCGStab:  Solving for Uy, Initial residual = 1.7348e-05, Final residual = 1.4843e-13, No Iterations 1
DICPCG:  Solving for p, Initial residual = 0.000503325, Final residual = 4.69188e-05, No Iterations 149
time step continuity errors : sum local = 7.6038e-13, global = -4.55304e-15, cumulative = 2.33014e-12
DICPCG:  Solving for p, Initial residual = 0.00049793, Final residual = 4.91124e-05, No Iterations 148
time step continuity errors : sum local = 7.97466e-13, global = 3.42276e-15, cumulative = 2.33356e-12
ExecutionTime = 15.52 s  ClockTime = 16 s

Time = 100.275

Courant Number mean: 0.00257384 max: 0.0159016 velocity magnitude: 0.00620147
BiCGStab:  Solving for Ux, Initial residual = 6.68875e-06, Final residual = 6.68875e-06, No Iterations 0
BiCGStab:  Solving for Uy, Initial residual = 1.73472e-05, Final residual = 1.48375e-13, No Iterations 1
DICPCG:  Solving for p, Initial residual = 0.000522824, Final residual = 5.06998e-05, No Iterations 148
time step continuity errors : sum local = 8.21653e-13, global = -3.22926e-15, cumulative = 2.33033e-12
DICPCG:  Solving for p, Initial residual = 0.000498927, Final residual = 4.72487e-05, No Iterations 149
time step continuity errors : sum local = 7.672e-13, global = 4.70943e-15, cumulative = 2.33504e-12
ExecutionTime = 15.8 s  ClockTime = 17 s

Time = 100.28

Courant Number mean: 0.00257384 max: 0.0159016 velocity magnitude: 0.00620146
BiCGStab:  Solving for Ux, Initial residual = 6.68856e-06, Final residual = 6.68856e-06, No Iterations 0
BiCGStab:  Solving for Uy, Initial residual = 1.73463e-05, Final residual = 1.48431e-13, No Iterations 1
DICPCG:  Solving for p, Initial residual = 0.000514913, Final residual = 4.76464e-05, No Iterations 149
time step continuity errors : sum local = 7.72164e-13, global = -4.42965e-15, cumulative = 2.33061e-12
DICPCG:  Solving for p, Initial residual = 0.000498242, Final residual = 4.9648e-05, No Iterations 148
time step continuity errors : sum local = 8.06155e-13, global = 3.54242e-15, cumulative = 2.33415e-12
ExecutionTime = 16.09 s  ClockTime = 17 s

Time = 100.285

Courant Number mean: 0.00257384 max: 0.0159016 velocity magnitude: 0.00620145
BiCGStab:  Solving for Ux, Initial residual = 6.68841e-06, Final residual = 6.68841e-06, No Iterations 0
BiCGStab:  Solving for Uy, Initial residual = 1.73456e-05, Final residual = 1.48359e-13, No Iterations 1
DICPCG:  Solving for p, Initial residual = 0.000512964, Final residual = 4.76026e-05, No Iterations 149
time step continuity errors : sum local = 7.71451e-13, global = -4.62734e-15, cumulative = 2.32952e-12
DICPCG:  Solving for p, Initial residual = 0.000498505, Final residual = 4.64869e-05, No Iterations 149
time step continuity errors : sum local = 7.54824e-13, global = 4.9536e-15, cumulative = 2.33448e-12
ExecutionTime = 16.39 s  ClockTime = 17 s

Time = 100.29

Courant Number mean: 0.00257384 max: 0.0159015 velocity magnitude: 0.00620144
BiCGStab:  Solving for Ux, Initial residual = 6.68822e-06, Final residual = 6.68822e-06, No Iterations 0
BiCGStab:  Solving for Uy, Initial residual = 1.73447e-05, Final residual = 1.48422e-13, No Iterations 1
DICPCG:  Solving for p, Initial residual = 0.000515328, Final residual = 5.0071e-05, No Iterations 148
time step continuity errors : sum local = 8.1145e-13, global = -3.5128e-15, cumulative = 2.33096e-12
DICPCG:  Solving for p, Initial residual = 0.000499324, Final residual = 4.99104e-05, No Iterations 148
time step continuity errors : sum local = 8.10408e-13, global = 3.7653e-15, cumulative = 2.33473e-12
ExecutionTime = 16.74 s  ClockTime = 18 s

Time = 100.295

Courant Number mean: 0.00257384 max: 0.0159015 velocity magnitude: 0.00620143
BiCGStab:  Solving for Ux, Initial residual = 6.68807e-06, Final residual = 6.68807e-06, No Iterations 0
BiCGStab:  Solving for Uy, Initial residual = 1.7344e-05, Final residual = 1.48338e-13, No Iterations 1
DICPCG:  Solving for p, Initial residual = 0.000518067, Final residual = 5.15633e-05, No Iterations 148
time step continuity errors : sum local = 8.35632e-13, global = -3.21366e-15, cumulative = 2.33152e-12
DICPCG:  Solving for p, Initial residual = 0.000498717, Final residual = 4.68597e-05, No Iterations 149
time step continuity errors : sum local = 7.60868e-13, global = 4.95609e-15, cumulative = 2.33647e-12
ExecutionTime = 17.08 s  ClockTime = 18 s

Time = 100.3

Courant Number mean: 0.00257384 max: 0.0159015 velocity magnitude: 0.00620142
BiCGStab:  Solving for Ux, Initial residual = 6.68789e-06, Final residual = 6.68789e-06, No Iterations 0
BiCGStab:  Solving for Uy, Initial residual = 1.73431e-05, Final residual = 1.48394e-13, No Iterations 1
DICPCG:  Solving for p, Initial residual = 0.000522489, Final residual = 5.12389e-05, No Iterations 148
time step continuity errors : sum local = 8.3037e-13, global = -2.91873e-15, cumulative = 2.33355e-12
DICPCG:  Solving for p, Initial residual = 0.000499729, Final residual = 4.65689e-05, No Iterations 149
time step continuity errors : sum local = 7.56142e-13, global = 5.15951e-15, cumulative = 2.33871e-12
ExecutionTime = 17.41 s  ClockTime = 18 s

Time = 100.305

Courant Number mean: 0.00257384 max: 0.0159014 velocity magnitude: 0.00620141
BiCGStab:  Solving for Ux, Initial residual = 6.68774e-06, Final residual = 6.68774e-06, No Iterations 0
BiCGStab:  Solving for Uy, Initial residual = 1.73424e-05, Final residual = 1.48359e-13, No Iterations 1
DICPCG:  Solving for p, Initial residual = 0.000509675, Final residual = 5.09341e-05, No Iterations 148
time step continuity errors : sum local = 8.25426e-13, global = -2.98202e-15, cumulative = 2.33573e-12
DICPCG:  Solving for p, Initial residual = 0.000499858, Final residual = 4.98941e-05, No Iterations 148
time step continuity errors : sum local = 8.10132e-13, global = 3.41225e-15, cumulative = 2.33914e-12
ExecutionTime = 17.69 s  ClockTime = 19 s

Time = 100.31

Courant Number mean: 0.00257384 max: 0.0159014 velocity magnitude: 0.0062014
BiCGStab:  Solving for Ux, Initial residual = 6.68758e-06, Final residual = 6.68758e-06, No Iterations 0
BiCGStab:  Solving for Uy, Initial residual = 1.73415e-05, Final residual = 1.48296e-13, No Iterations 1
DICPCG:  Solving for p, Initial residual = 0.000522243, Final residual = 4.85335e-05, No Iterations 149
time step continuity errors : sum local = 7.86519e-13, global = -4.41638e-15, cumulative = 2.33473e-12
DICPCG:  Solving for p, Initial residual = 0.000498215, Final residual = 4.73161e-05, No Iterations 149
time step continuity errors : sum local = 7.68268e-13, global = 4.68712e-15, cumulative = 2.33941e-12
ExecutionTime = 17.97 s  ClockTime = 19 s

Time = 100.315

Courant Number mean: 0.00257384 max: 0.0159014 velocity magnitude: 0.00620139
BiCGStab:  Solving for Ux, Initial residual = 6.68739e-06, Final residual = 6.68739e-06, No Iterations 0
BiCGStab:  Solving for Uy, Initial residual = 1.73406e-05, Final residual = 1.48376e-13, No Iterations 1
DICPCG:  Solving for p, Initial residual = 0.000518083, Final residual = 5.15467e-05, No Iterations 148
time step continuity errors : sum local = 8.35346e-13, global = -3.0275e-15, cumulative = 2.33639e-12
DICPCG:  Solving for p, Initial residual = 0.000499191, Final residual = 4.67121e-05, No Iterations 149
time step continuity errors : sum local = 7.58457e-13, global = 4.84383e-15, cumulative = 2.34123e-12
ExecutionTime = 18.24 s  ClockTime = 19 s

Time = 100.32

Courant Number mean: 0.00257384 max: 0.0159013 velocity magnitude: 0.00620138
BiCGStab:  Solving for Ux, Initial residual = 6.68723e-06, Final residual = 6.68723e-06, No Iterations 0
BiCGStab:  Solving for Uy, Initial residual = 1.73398e-05, Final residual = 1.48327e-13, No Iterations 1
DICPCG:  Solving for p, Initial residual = 0.000503397, Final residual = 4.78614e-05, No Iterations 149
time step continuity errors : sum local = 7.7562e-13, global = -4.44496e-15, cumulative = 2.33679e-12
DICPCG:  Solving for p, Initial residual = 0.000497906, Final residual = 4.5876e-05, No Iterations 149
time step continuity errors : sum local = 7.4488e-13, global = 4.81525e-15, cumulative = 2.3416e-12
ExecutionTime = 18.52 s  ClockTime = 19 s

Time = 100.325

Courant Number mean: 0.00257384 max: 0.0159013 velocity magnitude: 0.00620137
BiCGStab:  Solving for Ux, Initial residual = 6.68707e-06, Final residual = 6.68707e-06, No Iterations 0
BiCGStab:  Solving for Uy, Initial residual = 1.7339e-05, Final residual = 1.48323e-13, No Iterations 1
DICPCG:  Solving for p, Initial residual = 0.000504461, Final residual = 4.69653e-05, No Iterations 149
time step continuity errors : sum local = 7.61094e-13, global = -4.67006e-15, cumulative = 2.33693e-12
DICPCG:  Solving for p, Initial residual = 0.000497472, Final residual = 4.95696e-05, No Iterations 148
time step continuity errors : sum local = 8.04848e-13, global = 3.49499e-15, cumulative = 2.34043e-12
ExecutionTime = 18.88 s  ClockTime = 20 s

Time = 100.33

Courant Number mean: 0.00257384 max: 0.0159013 velocity magnitude: 0.00620137
BiCGStab:  Solving for Ux, Initial residual = 6.68691e-06, Final residual = 6.68691e-06, No Iterations 0
BiCGStab:  Solving for Uy, Initial residual = 1.73383e-05, Final residual = 1.48276e-13, No Iterations 1
DICPCG:  Solving for p, Initial residual = 0.000520226, Final residual = 5.12356e-05, No Iterations 148
time step continuity errors : sum local = 8.30293e-13, global = -3.05395e-15, cumulative = 2.33737e-12
DICPCG:  Solving for p, Initial residual = 0.000498405, Final residual = 4.76423e-05, No Iterations 149
time step continuity errors : sum local = 7.73551e-13, global = 4.75536e-15, cumulative = 2.34213e-12
ExecutionTime = 19.17 s  ClockTime = 20 s

Time = 100.335

Courant Number mean: 0.00257384 max: 0.0159012 velocity magnitude: 0.00620136
BiCGStab:  Solving for Ux, Initial residual = 6.68672e-06, Final residual = 6.68672e-06, No Iterations 0
BiCGStab:  Solving for Uy, Initial residual = 1.73374e-05, Final residual = 1.48323e-13, No Iterations 1
DICPCG:  Solving for p, Initial residual = 0.000517567, Final residual = 5.11339e-05, No Iterations 148
time step continuity errors : sum local = 8.28642e-13, global = -3.13551e-15, cumulative = 2.33899e-12
DICPCG:  Solving for p, Initial residual = 0.000499304, Final residual = 4.59986e-05, No Iterations 149
time step continuity errors : sum local = 7.46861e-13, global = 5.05767e-15, cumulative = 2.34405e-12
ExecutionTime = 19.45 s  ClockTime = 20 s

Time = 100.34

Courant Number mean: 0.00257384 max: 0.0159012 velocity magnitude: 0.00620135
BiCGStab:  Solving for Ux, Initial residual = 6.68657e-06, Final residual = 6.68657e-06, No Iterations 0
BiCGStab:  Solving for Uy, Initial residual = 1.73367e-05, Final residual = 1.48286e-13, No Iterations 1
DICPCG:  Solving for p, Initial residual = 0.000515494, Final residual = 5.08037e-05, No Iterations 148
time step continuity errors : sum local = 8.2329e-13, global = -2.96908e-15, cumulative = 2.34108e-12
DICPCG:  Solving for p, Initial residual = 0.000498367, Final residual = 4.68011e-05, No Iterations 149
time step continuity errors : sum local = 7.59891e-13, global = 4.9618e-15, cumulative = 2.34604e-12
ExecutionTime = 19.72 s  ClockTime = 21 s

Time = 100.345

Courant Number mean: 0.00257384 max: 0.0159012 velocity magnitude: 0.00620134
BiCGStab:  Solving for Ux, Initial residual = 6.6864e-06, Final residual = 6.6864e-06, No Iterations 0
BiCGStab:  Solving for Uy, Initial residual = 1.73361e-05, Final residual = 1.48287e-13, No Iterations 1
DICPCG:  Solving for p, Initial residual = 0.000522281, Final residual = 5.08432e-05, No Iterations 148
time step continuity errors : sum local = 8.23928e-13, global = -2.93637e-15, cumulative = 2.34311e-12
DICPCG:  Solving for p, Initial residual = 0.000498986, Final residual = 4.66964e-05, No Iterations 149
time step continuity errors : sum local = 7.58185e-13, global = 5.00064e-15, cumulative = 2.34811e-12
ExecutionTime = 20.07 s  ClockTime = 21 s

Time = 100.35

Courant Number mean: 0.00257384 max: 0.0159011 velocity magnitude: 0.00620133
BiCGStab:  Solving for Ux, Initial residual = 6.68622e-06, Final residual = 6.68622e-06, No Iterations 0
BiCGStab:  Solving for Uy, Initial residual = 1.7335e-05, Final residual = 1.48256e-13, No Iterations 1
DICPCG:  Solving for p, Initial residual = 0.000514148, Final residual = 5.06951e-05, No Iterations 148
time step continuity errors : sum local = 8.21521e-13, global = -2.94785e-15, cumulative = 2.34516e-12
DICPCG:  Solving for p, Initial residual = 0.000498659, Final residual = 4.7398e-05, No Iterations 149
time step continuity errors : sum local = 7.69572e-13, global = 4.73286e-15, cumulative = 2.34989e-12
ExecutionTime = 20.34 s  ClockTime = 21 s

Time = 100.355

Courant Number mean: 0.00257384 max: 0.0159011 velocity magnitude: 0.00620132
BiCGStab:  Solving for Ux, Initial residual = 6.68607e-06, Final residual = 6.68607e-06, No Iterations 0
BiCGStab:  Solving for Uy, Initial residual = 1.73341e-05, Final residual = 1.48248e-13, No Iterations 1
DICPCG:  Solving for p, Initial residual = 0.000506616, Final residual = 4.79918e-05, No Iterations 149
time step continuity errors : sum local = 7.7771e-13, global = -4.54281e-15, cumulative = 2.34535e-12
DICPCG:  Solving for p, Initial residual = 0.000497555, Final residual = 4.64919e-05, No Iterations 149
time step continuity errors : sum local = 7.54857e-13, global = 4.86811e-15, cumulative = 2.35022e-12
ExecutionTime = 20.64 s  ClockTime = 22 s

Time = 100.36

Courant Number mean: 0.00257384 max: 0.0159011 velocity magnitude: 0.00620131
BiCGStab:  Solving for Ux, Initial residual = 6.68591e-06, Final residual = 6.68591e-06, No Iterations 0
BiCGStab:  Solving for Uy, Initial residual = 1.73333e-05, Final residual = 1.48255e-13, No Iterations 1
DICPCG:  Solving for p, Initial residual = 0.000502618, Final residual = 4.72615e-05, No Iterations 149
time step continuity errors : sum local = 7.65873e-13, global = -4.39169e-15, cumulative = 2.34582e-12
DICPCG:  Solving for p, Initial residual = 0.000497904, Final residual = 4.94007e-05, No Iterations 148
time step continuity errors : sum local = 8.02083e-13, global = 3.3904e-15, cumulative = 2.34922e-12
ExecutionTime = 20.92 s  ClockTime = 22 s

Time = 100.365

Courant Number mean: 0.00257384 max: 0.015901 velocity magnitude: 0.0062013
BiCGStab:  Solving for Ux, Initial residual = 6.68575e-06, Final residual = 6.68575e-06, No Iterations 0
BiCGStab:  Solving for Uy, Initial residual = 1.73325e-05, Final residual = 1.48207e-13, No Iterations 1
DICPCG:  Solving for p, Initial residual = 0.000519731, Final residual = 4.83528e-05, No Iterations 149
time step continuity errors : sum local = 7.83557e-13, global = -4.55785e-15, cumulative = 2.34466e-12
DICPCG:  Solving for p, Initial residual = 0.000498262, Final residual = 4.71037e-05, No Iterations 149
time step continuity errors : sum local = 7.6479e-13, global = 5.01207e-15, cumulative = 2.34967e-12
ExecutionTime = 21.19 s  ClockTime = 22 s

Time = 100.37

Courant Number mean: 0.00257384 max: 0.015901 velocity magnitude: 0.00620129
BiCGStab:  Solving for Ux, Initial residual = 6.68556e-06, Final residual = 6.68556e-06, No Iterations 0
BiCGStab:  Solving for Uy, Initial residual = 1.73317e-05, Final residual = 1.48271e-13, No Iterations 1
DICPCG:  Solving for p, Initial residual = 0.00052182, Final residual = 5.00398e-05, No Iterations 148
time step continuity errors : sum local = 8.10891e-13, global = -3.31939e-15, cumulative = 2.34635e-12
DICPCG:  Solving for p, Initial residual = 0.000499236, Final residual = 4.92714e-05, No Iterations 148
time step continuity errors : sum local = 7.99976e-13, global = 3.47566e-15, cumulative = 2.34983e-12
ExecutionTime = 21.48 s  ClockTime = 22 s

Time = 100.375

Courant Number mean: 0.00257384 max: 0.015901 velocity magnitude: 0.00620128
BiCGStab:  Solving for Ux, Initial residual = 6.68542e-06, Final residual = 6.68542e-06, No Iterations 0
BiCGStab:  Solving for Uy, Initial residual = 1.73308e-05, Final residual = 1.48175e-13, No Iterations 1
DICPCG:  Solving for p, Initial residual = 0.0005197, Final residual = 5.15205e-05, No Iterations 148
time step continuity errors : sum local = 8.34881e-13, global = -3.0669e-15, cumulative = 2.34676e-12
DICPCG:  Solving for p, Initial residual = 0.000498175, Final residual = 4.95647e-05, No Iterations 148
time step continuity errors : sum local = 8.04735e-13, global = 3.3499e-15, cumulative = 2.35011e-12
ExecutionTime = 21.75 s  ClockTime = 23 s

Time = 100.38

Courant Number mean: 0.00257385 max: 0.0159009 velocity magnitude: 0.00620127
BiCGStab:  Solving for Ux, Initial residual = 6.68524e-06, Final residual = 6.68524e-06, No Iterations 0
BiCGStab:  Solving for Uy, Initial residual = 1.733e-05, Final residual = 1.48192e-13, No Iterations 1
DICPCG:  Solving for p, Initial residual = 0.000504822, Final residual = 4.73642e-05, No Iterations 149
time step continuity errors : sum local = 7.67526e-13, global = -4.47725e-15, cumulative = 2.34563e-12
DICPCG:  Solving for p, Initial residual = 0.000497535, Final residual = 4.64377e-05, No Iterations 149
time step continuity errors : sum local = 7.53964e-13, global = 4.95774e-15, cumulative = 2.35059e-12
ExecutionTime = 22.03 s  ClockTime = 23 s

Time = 100.385

Courant Number mean: 0.00257385 max: 0.0159009 velocity magnitude: 0.00620126
BiCGStab:  Solving for Ux, Initial residual = 6.68507e-06, Final residual = 6.68507e-06, No Iterations 0
BiCGStab:  Solving for Uy, Initial residual = 1.73291e-05, Final residual = 1.48236e-13, No Iterations 1
DICPCG:  Solving for p, Initial residual = 0.000519806, Final residual = 5.07238e-05, No Iterations 148
time step continuity errors : sum local = 8.21964e-13, global = -3.05647e-15, cumulative = 2.34753e-12
DICPCG:  Solving for p, Initial residual = 0.000499232, Final residual = 4.98111e-05, No Iterations 148
time step continuity errors : sum local = 8.08732e-13, global = 3.28917e-15, cumulative = 2.35082e-12
ExecutionTime = 22.32 s  ClockTime = 23 s

Time = 100.39

Courant Number mean: 0.00257385 max: 0.0159008 velocity magnitude: 0.00620125
BiCGStab:  Solving for Ux, Initial residual = 6.68492e-06, Final residual = 6.68492e-06, No Iterations 0
BiCGStab:  Solving for Uy, Initial residual = 1.73284e-05, Final residual = 1.48141e-13, No Iterations 1
DICPCG:  Solving for p, Initial residual = 0.000523676, Final residual = 5.14182e-05, No Iterations 148
time step continuity errors : sum local = 8.33216e-13, global = -3.14997e-15, cumulative = 2.34767e-12
DICPCG:  Solving for p, Initial residual = 0.000497957, Final residual = 4.69759e-05, No Iterations 149
time step continuity errors : sum local = 7.62697e-13, global = 4.78003e-15, cumulative = 2.35245e-12
ExecutionTime = 22.62 s  ClockTime = 24 s

Time = 100.395

Courant Number mean: 0.00257385 max: 0.0159008 velocity magnitude: 0.00620124
BiCGStab:  Solving for Ux, Initial residual = 6.68473e-06, Final residual = 6.68473e-06, No Iterations 0
BiCGStab:  Solving for Uy, Initial residual = 1.73275e-05, Final residual = 1.48209e-13, No Iterations 1
DICPCG:  Solving for p, Initial residual = 0.000520103, Final residual = 5.10573e-05, No Iterations 148
time step continuity errors : sum local = 8.27366e-13, global = -2.96784e-15, cumulative = 2.34948e-12
DICPCG:  Solving for p, Initial residual = 0.000499052, Final residual = 4.6758e-05, No Iterations 149
time step continuity errors : sum local = 7.59157e-13, global = 4.66697e-15, cumulative = 2.35415e-12
ExecutionTime = 22.9 s  ClockTime = 24 s

Time = 100.4

Courant Number mean: 0.00257385 max: 0.0159008 velocity magnitude: 0.00620123
BiCGStab:  Solving for Ux, Initial residual = 6.68459e-06, Final residual = 6.68459e-06, No Iterations 0
BiCGStab:  Solving for Uy, Initial residual = 1.73267e-05, Final residual = 1.48158e-13, No Iterations 1
DICPCG:  Solving for p, Initial residual = 0.000504485, Final residual = 4.80979e-05, No Iterations 149
time step continuity errors : sum local = 7.79408e-13, global = -4.30747e-15, cumulative = 2.34984e-12
DICPCG:  Solving for p, Initial residual = 0.000497559, Final residual = 4.62149e-05, No Iterations 149
time step continuity errors : sum local = 7.50341e-13, global = 4.7601e-15, cumulative = 2.3546e-12
ExecutionTime = 23.16 s  ClockTime = 24 s

Time = 100.405

Courant Number mean: 0.00257385 max: 0.0159007 velocity magnitude: 0.00620122
BiCGStab:  Solving for Ux, Initial residual = 6.68443e-06, Final residual = 6.68443e-06, No Iterations 0
BiCGStab:  Solving for Uy, Initial residual = 1.73258e-05, Final residual = 1.4816e-13, No Iterations 1
DICPCG:  Solving for p, Initial residual = 0.000506229, Final residual = 4.75353e-05, No Iterations 149
time step continuity errors : sum local = 7.70293e-13, global = -4.23329e-15, cumulative = 2.35037e-12
DICPCG:  Solving for p, Initial residual = 0.000497668, Final residual = 4.61394e-05, No Iterations 149
time step continuity errors : sum local = 7.49119e-13, global = 4.81157e-15, cumulative = 2.35518e-12
ExecutionTime = 23.46 s  ClockTime = 24 s

Time = 100.41

Courant Number mean: 0.00257385 max: 0.0159007 velocity magnitude: 0.00620121
BiCGStab:  Solving for Ux, Initial residual = 6.68427e-06, Final residual = 6.68427e-06, No Iterations 0
BiCGStab:  Solving for Uy, Initial residual = 1.73249e-05, Final residual = 1.48149e-13, No Iterations 1
DICPCG:  Solving for p, Initial residual = 0.000517693, Final residual = 4.92312e-05, No Iterations 148
time step continuity errors : sum local = 7.97788e-13, global = -2.99479e-15, cumulative = 2.35219e-12
DICPCG:  Solving for p, Initial residual = 0.000499912, Final residual = 4.74832e-05, No Iterations 149
time step continuity errors : sum local = 7.70957e-13, global = 4.54697e-15, cumulative = 2.35673e-12
ExecutionTime = 23.74 s  ClockTime = 25 s

Time = 100.415

Courant Number mean: 0.00257385 max: 0.0159007 velocity magnitude: 0.0062012
BiCGStab:  Solving for Ux, Initial residual = 6.68414e-06, Final residual = 6.68414e-06, No Iterations 0
BiCGStab:  Solving for Uy, Initial residual = 1.73236e-05, Final residual = 1.48108e-13, No Iterations 1
DICPCG:  Solving for p, Initial residual = 0.000538324, Final residual = 5.24796e-05, No Iterations 146
time step continuity errors : sum local = 8.50415e-13, global = -3.25e-15, cumulative = 2.35348e-12
DICPCG:  Solving for p, Initial residual = 0.000497214, Final residual = 4.72438e-05, No Iterations 149
time step continuity errors : sum local = 7.67022e-13, global = 4.87222e-15, cumulative = 2.35836e-12
ExecutionTime = 24.01 s  ClockTime = 25 s

Time = 100.42

Courant Number mean: 0.00257385 max: 0.0159006 velocity magnitude: 0.00620119
BiCGStab:  Solving for Ux, Initial residual = 6.68388e-06, Final residual = 6.68388e-06, No Iterations 0
BiCGStab:  Solving for Uy, Initial residual = 1.73236e-05, Final residual = 1.481e-13, No Iterations 1
DICPCG:  Solving for p, Initial residual = 0.000505811, Final residual = 5.02535e-05, No Iterations 148
time step continuity errors : sum local = 8.14313e-13, global = -3.12443e-15, cumulative = 2.35523e-12
DICPCG:  Solving for p, Initial residual = 0.000497491, Final residual = 4.61137e-05, No Iterations 149
time step continuity errors : sum local = 7.48672e-13, global = 5.00162e-15, cumulative = 2.36023e-12
ExecutionTime = 24.31 s  ClockTime = 25 s

Time = 100.425

Courant Number mean: 0.00257385 max: 0.0159006 velocity magnitude: 0.00620118
BiCGStab:  Solving for Ux, Initial residual = 6.68373e-06, Final residual = 6.68373e-06, No Iterations 0
BiCGStab:  Solving for Uy, Initial residual = 1.73231e-05, Final residual = 1.48117e-13, No Iterations 1
DICPCG:  Solving for p, Initial residual = 0.000503081, Final residual = 4.65847e-05, No Iterations 149
time step continuity errors : sum local = 7.5486e-13, global = -5.02002e-15, cumulative = 2.35521e-12
DICPCG:  Solving for p, Initial residual = 0.000496648, Final residual = 4.91317e-05, No Iterations 148
time step continuity errors : sum local = 7.9767e-13, global = 3.82425e-15, cumulative = 2.35904e-12
ExecutionTime = 24.59 s  ClockTime = 26 s

Time = 100.43

Courant Number mean: 0.00257385 max: 0.0159006 velocity magnitude: 0.00620118
BiCGStab:  Solving for Ux, Initial residual = 6.68357e-06, Final residual = 6.68357e-06, No Iterations 0
BiCGStab:  Solving for Uy, Initial residual = 1.73223e-05, Final residual = 1.48094e-13, No Iterations 1
DICPCG:  Solving for p, Initial residual = 0.000517302, Final residual = 5.05668e-05, No Iterations 148
time step continuity errors : sum local = 8.19384e-13, global = -3.4843e-15, cumulative = 2.35555e-12
DICPCG:  Solving for p, Initial residual = 0.000497397, Final residual = 4.9338e-05, No Iterations 148
time step continuity errors : sum local = 8.01016e-13, global = 3.59719e-15, cumulative = 2.35915e-12
ExecutionTime = 24.9 s  ClockTime = 26 s

Time = 100.435

Courant Number mean: 0.00257385 max: 0.0159005 velocity magnitude: 0.00620117
BiCGStab:  Solving for Ux, Initial residual = 6.68339e-06, Final residual = 6.68339e-06, No Iterations 0
BiCGStab:  Solving for Uy, Initial residual = 1.73214e-05, Final residual = 1.48094e-13, No Iterations 1
DICPCG:  Solving for p, Initial residual = 0.000503209, Final residual = 4.70537e-05, No Iterations 149
time step continuity errors : sum local = 7.62455e-13, global = -4.8228e-15, cumulative = 2.35433e-12
DICPCG:  Solving for p, Initial residual = 0.000496958, Final residual = 4.92188e-05, No Iterations 148
time step continuity errors : sum local = 7.99078e-13, global = 3.54408e-15, cumulative = 2.35787e-12
ExecutionTime = 25.23 s  ClockTime = 26 s

Time = 100.44

Courant Number mean: 0.00257385 max: 0.0159005 velocity magnitude: 0.00620116
BiCGStab:  Solving for Ux, Initial residual = 6.68323e-06, Final residual = 6.68323e-06, No Iterations 0
BiCGStab:  Solving for Uy, Initial residual = 1.73206e-05, Final residual = 1.48105e-13, No Iterations 1
DICPCG:  Solving for p, Initial residual = 0.000505808, Final residual = 4.76074e-05, No Iterations 149
time step continuity errors : sum local = 7.71424e-13, global = -4.65895e-15, cumulative = 2.35321e-12
DICPCG:  Solving for p, Initial residual = 0.000497176, Final residual = 4.57519e-05, No Iterations 149
time step continuity errors : sum local = 7.42788e-13, global = 4.70226e-15, cumulative = 2.35792e-12
ExecutionTime = 25.53 s  ClockTime = 26 s

Time = 100.445

Courant Number mean: 0.00257385 max: 0.0159005 velocity magnitude: 0.00620115
BiCGStab:  Solving for Ux, Initial residual = 6.68305e-06, Final residual = 6.68305e-06, No Iterations 0
BiCGStab:  Solving for Uy, Initial residual = 1.73197e-05, Final residual = 1.48131e-13, No Iterations 1
DICPCG:  Solving for p, Initial residual = 0.000513077, Final residual = 5.07553e-05, No Iterations 148
time step continuity errors : sum local = 8.22428e-13, global = -3.04383e-15, cumulative = 2.35487e-12
DICPCG:  Solving for p, Initial residual = 0.000498357, Final residual = 4.61408e-05, No Iterations 149
time step continuity errors : sum local = 7.49099e-13, global = 5.11357e-15, cumulative = 2.35998e-12
ExecutionTime = 25.95 s  ClockTime = 27 s

Time = 100.45

Courant Number mean: 0.00257385 max: 0.0159004 velocity magnitude: 0.00620114
BiCGStab:  Solving for Ux, Initial residual = 6.68289e-06, Final residual = 6.68289e-06, No Iterations 0
BiCGStab:  Solving for Uy, Initial residual = 1.73189e-05, Final residual = 1.48087e-13, No Iterations 1
DICPCG:  Solving for p, Initial residual = 0.000502535, Final residual = 4.75315e-05, No Iterations 149
time step continuity errors : sum local = 7.70189e-13, global = -4.2532e-15, cumulative = 2.35573e-12
DICPCG:  Solving for p, Initial residual = 0.000496991, Final residual = 4.5917e-05, No Iterations 149
time step continuity errors : sum local = 7.45463e-13, global = 5.12394e-15, cumulative = 2.36086e-12
ExecutionTime = 26.25 s  ClockTime = 27 s

Time = 100.455

Courant Number mean: 0.00257385 max: 0.0159004 velocity magnitude: 0.00620113
BiCGStab:  Solving for Ux, Initial residual = 6.68274e-06, Final residual = 6.68274e-06, No Iterations 0
BiCGStab:  Solving for Uy, Initial residual = 1.73181e-05, Final residual = 1.48081e-13, No Iterations 1
DICPCG:  Solving for p, Initial residual = 0.000502298, Final residual = 4.65123e-05, No Iterations 149
time step continuity errors : sum local = 7.53672e-13, global = -4.59529e-15, cumulative = 2.35626e-12
DICPCG:  Solving for p, Initial residual = 0.000496532, Final residual = 4.69133e-05, No Iterations 149
time step continuity errors : sum local = 7.61637e-13, global = 4.81123e-15, cumulative = 2.36107e-12
ExecutionTime = 26.59 s  ClockTime = 28 s

Time = 100.46

Courant Number mean: 0.00257385 max: 0.0159004 velocity magnitude: 0.00620112
BiCGStab:  Solving for Ux, Initial residual = 6.68258e-06, Final residual = 6.68258e-06, No Iterations 0
BiCGStab:  Solving for Uy, Initial residual = 1.73172e-05, Final residual = 1.48069e-13, No Iterations 1
DICPCG:  Solving for p, Initial residual = 0.000505093, Final residual = 5.02269e-05, No Iterations 148
time step continuity errors : sum local = 8.13861e-13, global = -3.36353e-15, cumulative = 2.35771e-12
DICPCG:  Solving for p, Initial residual = 0.000497714, Final residual = 4.6732e-05, No Iterations 149
time step continuity errors : sum local = 7.58693e-13, global = 4.84782e-15, cumulative = 2.36256e-12
ExecutionTime = 26.88 s  ClockTime = 28 s

Time = 100.465

Courant Number mean: 0.00257385 max: 0.0159003 velocity magnitude: 0.00620111
BiCGStab:  Solving for Ux, Initial residual = 6.68241e-06, Final residual = 6.68241e-06, No Iterations 0
BiCGStab:  Solving for Uy, Initial residual = 1.73164e-05, Final residual = 1.48053e-13, No Iterations 1
DICPCG:  Solving for p, Initial residual = 0.000504742, Final residual = 4.69485e-05, No Iterations 149
time step continuity errors : sum local = 7.60738e-13, global = -4.65466e-15, cumulative = 2.3579e-12
DICPCG:  Solving for p, Initial residual = 0.000497097, Final residual = 4.91371e-05, No Iterations 148
time step continuity errors : sum local = 7.97739e-13, global = 3.55564e-15, cumulative = 2.36146e-12
ExecutionTime = 27.17 s  ClockTime = 28 s

Time = 100.47

Courant Number mean: 0.00257385 max: 0.0159003 velocity magnitude: 0.0062011
BiCGStab:  Solving for Ux, Initial residual = 6.68226e-06, Final residual = 6.68226e-06, No Iterations 0
BiCGStab:  Solving for Uy, Initial residual = 1.73156e-05, Final residual = 1.48001e-13, No Iterations 1
DICPCG:  Solving for p, Initial residual = 0.000523358, Final residual = 5.18198e-05, No Iterations 148
time step continuity errors : sum local = 8.39673e-13, global = -3.08358e-15, cumulative = 2.35837e-12
DICPCG:  Solving for p, Initial residual = 0.000497812, Final residual = 4.69434e-05, No Iterations 149
time step continuity errors : sum local = 7.6213e-13, global = 4.7819e-15, cumulative = 2.36316e-12
ExecutionTime = 27.51 s  ClockTime = 28 s

Time = 100.475

Courant Number mean: 0.00257385 max: 0.0159003 velocity magnitude: 0.00620109
BiCGStab:  Solving for Ux, Initial residual = 6.68209e-06, Final residual = 6.68209e-06, No Iterations 0
BiCGStab:  Solving for Uy, Initial residual = 1.73145e-05, Final residual = 1.48042e-13, No Iterations 1
DICPCG:  Solving for p, Initial residual = 0.000525704, Final residual = 4.97647e-05, No Iterations 148
time step continuity errors : sum local = 8.06384e-13, global = -3.09347e-15, cumulative = 2.36006e-12
DICPCG:  Solving for p, Initial residual = 0.000498707, Final residual = 4.61432e-05, No Iterations 149
time step continuity errors : sum local = 7.49153e-13, global = 5.37274e-15, cumulative = 2.36543e-12
ExecutionTime = 27.81 s  ClockTime = 29 s

Time = 100.48

Courant Number mean: 0.00257385 max: 0.0159002 velocity magnitude: 0.00620108
BiCGStab:  Solving for Ux, Initial residual = 6.68196e-06, Final residual = 6.68196e-06, No Iterations 0
BiCGStab:  Solving for Uy, Initial residual = 1.73135e-05, Final residual = 1.47986e-13, No Iterations 1
DICPCG:  Solving for p, Initial residual = 0.00053715, Final residual = 5.21231e-05, No Iterations 147
time step continuity errors : sum local = 8.44583e-13, global = -2.88142e-15, cumulative = 2.36255e-12
DICPCG:  Solving for p, Initial residual = 0.000496199, Final residual = 4.70826e-05, No Iterations 149
time step continuity errors : sum local = 7.64358e-13, global = 4.80226e-15, cumulative = 2.36736e-12
ExecutionTime = 28.1 s  ClockTime = 29 s

Time = 100.485

Courant Number mean: 0.00257385 max: 0.0159002 velocity magnitude: 0.00620107
BiCGStab:  Solving for Ux, Initial residual = 6.68169e-06, Final residual = 6.68169e-06, No Iterations 0
BiCGStab:  Solving for Uy, Initial residual = 1.73135e-05, Final residual = 1.48009e-13, No Iterations 1
DICPCG:  Solving for p, Initial residual = 0.000503027, Final residual = 4.88283e-05, No Iterations 149
time step continuity errors : sum local = 7.91171e-13, global = -3.90533e-15, cumulative = 2.36345e-12
DICPCG:  Solving for p, Initial residual = 0.000496856, Final residual = 4.72963e-05, No Iterations 149
time step continuity errors : sum local = 7.67823e-13, global = 4.17884e-15, cumulative = 2.36763e-12
ExecutionTime = 28.44 s  ClockTime = 29 s

Time = 100.49

Courant Number mean: 0.00257385 max: 0.0159002 velocity magnitude: 0.00620106
BiCGStab:  Solving for Ux, Initial residual = 6.68154e-06, Final residual = 6.68154e-06, No Iterations 0
BiCGStab:  Solving for Uy, Initial residual = 1.73128e-05, Final residual = 1.48027e-13, No Iterations 1
DICPCG:  Solving for p, Initial residual = 0.000501888, Final residual = 4.86005e-05, No Iterations 149
time step continuity errors : sum local = 7.87475e-13, global = -4.07993e-15, cumulative = 2.36355e-12
DICPCG:  Solving for p, Initial residual = 0.000496717, Final residual = 4.64265e-05, No Iterations 149
time step continuity errors : sum local = 7.53698e-13, global = 4.26194e-15, cumulative = 2.36781e-12
ExecutionTime = 28.78 s  ClockTime = 30 s

Time = 100.495

Courant Number mean: 0.00257385 max: 0.0159001 velocity magnitude: 0.00620105
BiCGStab:  Solving for Ux, Initial residual = 6.68138e-06, Final residual = 6.68138e-06, No Iterations 0
BiCGStab:  Solving for Uy, Initial residual = 1.73119e-05, Final residual = 1.48034e-13, No Iterations 1
DICPCG:  Solving for p, Initial residual = 0.00050396, Final residual = 4.87926e-05, No Iterations 149
time step continuity errors : sum local = 7.90585e-13, global = -3.94263e-15, cumulative = 2.36387e-12
DICPCG:  Solving for p, Initial residual = 0.000496592, Final residual = 4.80028e-05, No Iterations 149
time step continuity errors : sum local = 7.79285e-13, global = 4.18278e-15, cumulative = 2.36805e-12
ExecutionTime = 29.1 s  ClockTime = 30 s

Time = 100.5

Courant Number mean: 0.00257385 max: 0.0159001 velocity magnitude: 0.00620104
BiCGStab:  Solving for Ux, Initial residual = 6.68122e-06, Final residual = 6.68122e-06, No Iterations 0
BiCGStab:  Solving for Uy, Initial residual = 1.73111e-05, Final residual = 1.48016e-13, No Iterations 1
DICPCG:  Solving for p, Initial residual = 0.000509643, Final residual = 4.80251e-05, No Iterations 149
time step continuity errors : sum local = 7.7815e-13, global = -4.36747e-15, cumulative = 2.36368e-12
DICPCG:  Solving for p, Initial residual = 0.000497742, Final residual = 4.62145e-05, No Iterations 149
time step continuity errors : sum local = 7.50261e-13, global = 4.72164e-15, cumulative = 2.36841e-12
ExecutionTime = 29.54 s  ClockTime = 31 s

Time = 100.505

Courant Number mean: 0.00257385 max: 0.0159001 velocity magnitude: 0.00620103
BiCGStab:  Solving for Ux, Initial residual = 6.68107e-06, Final residual = 6.68107e-06, No Iterations 0
BiCGStab:  Solving for Uy, Initial residual = 1.73104e-05, Final residual = 1.48013e-13, No Iterations 1
DICPCG:  Solving for p, Initial residual = 0.000509949, Final residual = 4.62295e-05, No Iterations 149
time step continuity errors : sum local = 7.49053e-13, global = -4.21749e-15, cumulative = 2.36419e-12
DICPCG:  Solving for p, Initial residual = 0.000497349, Final residual = 4.93973e-05, No Iterations 148
time step continuity errors : sum local = 8.01919e-13, global = 3.42499e-15, cumulative = 2.36761e-12
ExecutionTime = 29.9 s  ClockTime = 31 s

Time = 100.51

Courant Number mean: 0.00257385 max: 0.0159 velocity magnitude: 0.00620102
BiCGStab:  Solving for Ux, Initial residual = 6.6809e-06, Final residual = 6.6809e-06, No Iterations 0
BiCGStab:  Solving for Uy, Initial residual = 1.73095e-05, Final residual = 1.47952e-13, No Iterations 1
DICPCG:  Solving for p, Initial residual = 0.000517645, Final residual = 5.1139e-05, No Iterations 148
time step continuity errors : sum local = 8.28594e-13, global = -3.21617e-15, cumulative = 2.3644e-12
DICPCG:  Solving for p, Initial residual = 0.000496646, Final residual = 4.88031e-05, No Iterations 148
time step continuity errors : sum local = 7.92269e-13, global = 3.58741e-15, cumulative = 2.36798e-12
ExecutionTime = 30.32 s  ClockTime = 31 s

Time = 100.515

Courant Number mean: 0.00257385 max: 0.0159 velocity magnitude: 0.00620101
BiCGStab:  Solving for Ux, Initial residual = 6.68072e-06, Final residual = 6.68072e-06, No Iterations 0
BiCGStab:  Solving for Uy, Initial residual = 1.73086e-05, Final residual = 1.47964e-13, No Iterations 1
DICPCG:  Solving for p, Initial residual = 0.000502398, Final residual = 4.76529e-05, No Iterations 149
time step continuity errors : sum local = 7.72104e-13, global = -4.66645e-15, cumulative = 2.36332e-12
DICPCG:  Solving for p, Initial residual = 0.000496478, Final residual = 4.59636e-05, No Iterations 149
time step continuity errors : sum local = 7.46169e-13, global = 5.12743e-15, cumulative = 2.36844e-12
ExecutionTime = 30.79 s  ClockTime = 32 s

Time = 100.52

Courant Number mean: 0.00257385 max: 0.0159 velocity magnitude: 0.00620101
BiCGStab:  Solving for Ux, Initial residual = 6.68055e-06, Final residual = 6.68055e-06, No Iterations 0
BiCGStab:  Solving for Uy, Initial residual = 1.73078e-05, Final residual = 1.47998e-13, No Iterations 1
DICPCG:  Solving for p, Initial residual = 0.000516745, Final residual = 4.96387e-05, No Iterations 148
[...]
DICPCG:  Solving for p, Initial residual = 0.000469725, Final residual = 4.55059e-05, No Iterations 149
time step continuity errors : sum local = 7.33484e-13, global = -3.42688e-15, cumulative = 2.75189e-12
DICPCG:  Solving for p, Initial residual = 0.000455503, Final residual = 4.50204e-05, No Iterations 149
time step continuity errors : sum local = 7.27051e-13, global = 3.87357e-15, cumulative = 2.75576e-12
ExecutionTime = 708.62 s  ClockTime = 713 s

Time = 106.49

Courant Number mean: 0.00257396 max: 0.0158591 velocity magnitude: 0.00618984
BiCGStab:  Solving for Ux, Initial residual = 6.48981e-06, Final residual = 6.48981e-06, No Iterations 0
BiCGStab:  Solving for Uy, Initial residual = 1.6379e-05, Final residual = 1.35682e-13, No Iterations 1
DICPCG:  Solving for p, Initial residual = 0.000472687, Final residual = 4.58911e-05, No Iterations 149
time step continuity errors : sum local = 7.39691e-13, global = -3.61935e-15, cumulative = 2.75214e-12
DICPCG:  Solving for p, Initial residual = 0.000454861, Final residual = 4.33543e-05, No Iterations 150
time step continuity errors : sum local = 7.00141e-13, global = 4.75679e-15, cumulative = 2.7569e-12
ExecutionTime = 709.24 s  ClockTime = 713 s

Time = 106.495

Courant Number mean: 0.00257396 max: 0.0158591 velocity magnitude: 0.00618983
BiCGStab:  Solving for Ux, Initial residual = 6.48963e-06, Final residual = 6.48963e-06, No Iterations 0
BiCGStab:  Solving for Uy, Initial residual = 1.63782e-05, Final residual = 1.35697e-13, No Iterations 1
DICPCG:  Solving for p, Initial residual = 0.000469125, Final residual = 4.51881e-05, No Iterations 149
time step continuity errors : sum local = 7.28355e-13, global = -3.32372e-15, cumulative = 2.75358e-12
DICPCG:  Solving for p, Initial residual = 0.000455261, Final residual = 4.27677e-05, No Iterations 150
time step continuity errors : sum local = 6.90665e-13, global = 4.75569e-15, cumulative = 2.75833e-12
ExecutionTime = 709.82 s  ClockTime = 714 s

Time = 106.5

Courant Number mean: 0.00257396 max: 0.0158591 velocity magnitude: 0.00618982
BiCGStab:  Solving for Ux, Initial residual = 6.48949e-06, Final residual = 6.48949e-06, No Iterations 0
BiCGStab:  Solving for Uy, Initial residual = 1.63775e-05, Final residual = 1.35678e-13, No Iterations 1
DICPCG:  Solving for p, Initial residual = 0.000458982, Final residual = 4.54101e-05, No Iterations 149
time step continuity errors : sum local = 7.3193e-13, global = -3.5014e-15, cumulative = 2.75483e-12
DICPCG:  Solving for p, Initial residual = 0.000455017, Final residual = 4.45006e-05, No Iterations 149
time step continuity errors : sum local = 7.18647e-13, global = 3.77422e-15, cumulative = 2.75861e-12
ExecutionTime = 710.39 s  ClockTime = 714 s

Time = 106.505

Courant Number mean: 0.00257396 max: 0.015859 velocity magnitude: 0.00618981
BiCGStab:  Solving for Ux, Initial residual = 6.48935e-06, Final residual = 6.48935e-06, No Iterations 0
BiCGStab:  Solving for Uy, Initial residual = 1.63768e-05, Final residual = 1.35652e-13, No Iterations 1
DICPCG:  Solving for p, Initial residual = 0.000470107, Final residual = 4.64283e-05, No Iterations 149
time step continuity errors : sum local = 7.48339e-13, global = -3.54029e-15, cumulative = 2.75507e-12
DICPCG:  Solving for p, Initial residual = 0.000454475, Final residual = 4.33112e-05, No Iterations 149
time step continuity errors : sum local = 6.99435e-13, global = 3.75499e-15, cumulative = 2.75882e-12
ExecutionTime = 711 s  ClockTime = 715 s

Time = 106.51

Courant Number mean: 0.00257396 max: 0.015859 velocity magnitude: 0.0061898
BiCGStab:  Solving for Ux, Initial residual = 6.48917e-06, Final residual = 6.48917e-06, No Iterations 0
BiCGStab:  Solving for Uy, Initial residual = 1.6376e-05, Final residual = 1.35653e-13, No Iterations 1
DICPCG:  Solving for p, Initial residual = 0.000460465, Final residual = 4.47378e-05, No Iterations 149
time step continuity errors : sum local = 7.21087e-13, global = -3.55963e-15, cumulative = 2.75526e-12
DICPCG:  Solving for p, Initial residual = 0.000454617, Final residual = 4.49293e-05, No Iterations 149
time step continuity errors : sum local = 7.25563e-13, global = 3.72284e-15, cumulative = 2.75898e-12
ExecutionTime = 711.57 s  ClockTime = 716 s

Time = 106.515

Courant Number mean: 0.00257396 max: 0.0158589 velocity magnitude: 0.00618979
BiCGStab:  Solving for Ux, Initial residual = 6.48902e-06, Final residual = 6.48902e-06, No Iterations 0
BiCGStab:  Solving for Uy, Initial residual = 1.63753e-05, Final residual = 1.35643e-13, No Iterations 1
DICPCG:  Solving for p, Initial residual = 0.000458061, Final residual = 4.48673e-05, No Iterations 149
time step continuity errors : sum local = 7.2317e-13, global = -3.77375e-15, cumulative = 2.75521e-12
DICPCG:  Solving for p, Initial residual = 0.000454375, Final residual = 4.29833e-05, No Iterations 150
time step continuity errors : sum local = 6.94132e-13, global = 4.69432e-15, cumulative = 2.7599e-12
ExecutionTime = 712.17 s  ClockTime = 716 s

Time = 106.52

Courant Number mean: 0.00257396 max: 0.0158589 velocity magnitude: 0.00618978
BiCGStab:  Solving for Ux, Initial residual = 6.48885e-06, Final residual = 6.48885e-06, No Iterations 0
BiCGStab:  Solving for Uy, Initial residual = 1.63745e-05, Final residual = 1.3565e-13, No Iterations 1
DICPCG:  Solving for p, Initial residual = 0.000468453, Final residual = 4.6432e-05, No Iterations 149
time step continuity errors : sum local = 7.48385e-13, global = -3.39637e-15, cumulative = 2.75651e-12
DICPCG:  Solving for p, Initial residual = 0.000454842, Final residual = 4.51222e-05, No Iterations 149
time step continuity errors : sum local = 7.2867e-13, global = 3.76869e-15, cumulative = 2.76028e-12
ExecutionTime = 712.75 s  ClockTime = 717 s

Time = 106.525

Courant Number mean: 0.00257396 max: 0.0158589 velocity magnitude: 0.00618977
BiCGStab:  Solving for Ux, Initial residual = 6.48873e-06, Final residual = 6.48873e-06, No Iterations 0
BiCGStab:  Solving for Uy, Initial residual = 1.63738e-05, Final residual = 1.35617e-13, No Iterations 1
DICPCG:  Solving for p, Initial residual = 0.000468949, Final residual = 4.56554e-05, No Iterations 149
time step continuity errors : sum local = 7.35866e-13, global = -3.94113e-15, cumulative = 2.75634e-12
DICPCG:  Solving for p, Initial residual = 0.000454384, Final residual = 4.44657e-05, No Iterations 149
time step continuity errors : sum local = 7.18064e-13, global = 3.83361e-15, cumulative = 2.76017e-12
ExecutionTime = 713.35 s  ClockTime = 717 s

Time = 106.53

Courant Number mean: 0.00257396 max: 0.0158588 velocity magnitude: 0.00618976
BiCGStab:  Solving for Ux, Initial residual = 6.48856e-06, Final residual = 6.48856e-06, No Iterations 0
BiCGStab:  Solving for Uy, Initial residual = 1.63731e-05, Final residual = 1.35617e-13, No Iterations 1
DICPCG:  Solving for p, Initial residual = 0.000457378, Final residual = 4.55139e-05, No Iterations 149
time step continuity errors : sum local = 7.33581e-13, global = -3.37904e-15, cumulative = 2.75679e-12
DICPCG:  Solving for p, Initial residual = 0.000454584, Final residual = 4.30144e-05, No Iterations 150
time step continuity errors : sum local = 6.94623e-13, global = 4.61253e-15, cumulative = 2.7614e-12
ExecutionTime = 713.83 s  ClockTime = 718 s

Time = 106.535

Courant Number mean: 0.00257396 max: 0.0158588 velocity magnitude: 0.00618975
BiCGStab:  Solving for Ux, Initial residual = 6.48839e-06, Final residual = 6.48839e-06, No Iterations 0
BiCGStab:  Solving for Uy, Initial residual = 1.63724e-05, Final residual = 1.35618e-13, No Iterations 1
DICPCG:  Solving for p, Initial residual = 0.000468647, Final residual = 4.5694e-05, No Iterations 149
time step continuity errors : sum local = 7.36479e-13, global = -3.59851e-15, cumulative = 2.7578e-12
DICPCG:  Solving for p, Initial residual = 0.000454305, Final residual = 4.48325e-05, No Iterations 149
time step continuity errors : sum local = 7.23979e-13, global = 3.86551e-15, cumulative = 2.76167e-12
ExecutionTime = 714.21 s  ClockTime = 718 s

Time = 106.54

Courant Number mean: 0.00257396 max: 0.0158588 velocity magnitude: 0.00618974
BiCGStab:  Solving for Ux, Initial residual = 6.48827e-06, Final residual = 6.48827e-06, No Iterations 0
BiCGStab:  Solving for Uy, Initial residual = 1.63717e-05, Final residual = 1.35589e-13, No Iterations 1
DICPCG:  Solving for p, Initial residual = 0.000469057, Final residual = 4.49808e-05, No Iterations 149
time step continuity errors : sum local = 7.24981e-13, global = -3.69463e-15, cumulative = 2.75798e-12
DICPCG:  Solving for p, Initial residual = 0.000454527, Final residual = 4.41196e-05, No Iterations 149
time step continuity errors : sum local = 7.12464e-13, global = 3.81496e-15, cumulative = 2.76179e-12
ExecutionTime = 714.73 s  ClockTime = 719 s

Time = 106.545

Courant Number mean: 0.00257396 max: 0.0158587 velocity magnitude: 0.00618973
BiCGStab:  Solving for Ux, Initial residual = 6.4881e-06, Final residual = 6.4881e-06, No Iterations 0
BiCGStab:  Solving for Uy, Initial residual = 1.63709e-05, Final residual = 1.35584e-13, No Iterations 1
DICPCG:  Solving for p, Initial residual = 0.000458644, Final residual = 4.48147e-05, No Iterations 149
time step continuity errors : sum local = 7.223e-13, global = -3.59476e-15, cumulative = 2.7582e-12
DICPCG:  Solving for p, Initial residual = 0.00045452, Final residual = 4.48177e-05, No Iterations 149
time step continuity errors : sum local = 7.23734e-13, global = 3.99626e-15, cumulative = 2.76219e-12
ExecutionTime = 715.3 s  ClockTime = 719 s

Time = 106.55

Courant Number mean: 0.00257396 max: 0.0158587 velocity magnitude: 0.00618972
BiCGStab:  Solving for Ux, Initial residual = 6.48794e-06, Final residual = 6.48794e-06, No Iterations 0
BiCGStab:  Solving for Uy, Initial residual = 1.63702e-05, Final residual = 1.35577e-13, No Iterations 1
DICPCG:  Solving for p, Initial residual = 0.000460784, Final residual = 4.59616e-05, No Iterations 149
time step continuity errors : sum local = 7.40784e-13, global = -3.38099e-15, cumulative = 2.75881e-12
DICPCG:  Solving for p, Initial residual = 0.000454596, Final residual = 4.30466e-05, No Iterations 150
time step continuity errors : sum local = 6.95132e-13, global = 4.66098e-15, cumulative = 2.76347e-12
ExecutionTime = 715.72 s  ClockTime = 720 s

Time = 106.555

Courant Number mean: 0.00257396 max: 0.0158587 velocity magnitude: 0.00618972
BiCGStab:  Solving for Ux, Initial residual = 6.48777e-06, Final residual = 6.48777e-06, No Iterations 0
BiCGStab:  Solving for Uy, Initial residual = 1.63695e-05, Final residual = 1.35581e-13, No Iterations 1
DICPCG:  Solving for p, Initial residual = 0.000468499, Final residual = 4.53392e-05, No Iterations 149
time step continuity errors : sum local = 7.30747e-13, global = -3.58419e-15, cumulative = 2.75989e-12
DICPCG:  Solving for p, Initial residual = 0.000454992, Final residual = 4.50294e-05, No Iterations 149
time step continuity errors : sum local = 7.27146e-13, global = 3.73496e-15, cumulative = 2.76362e-12
ExecutionTime = 716.05 s  ClockTime = 720 s

Time = 106.56

Courant Number mean: 0.00257396 max: 0.0158586 velocity magnitude: 0.00618971
BiCGStab:  Solving for Ux, Initial residual = 6.48765e-06, Final residual = 6.48765e-06, No Iterations 0
BiCGStab:  Solving for Uy, Initial residual = 1.63687e-05, Final residual = 1.35547e-13, No Iterations 1
DICPCG:  Solving for p, Initial residual = 0.000471974, Final residual = 4.48344e-05, No Iterations 149
time step continuity errors : sum local = 7.22607e-13, global = -3.76814e-15, cumulative = 2.75985e-12
DICPCG:  Solving for p, Initial residual = 0.000454371, Final residual = 4.50271e-05, No Iterations 149
time step continuity errors : sum local = 7.27104e-13, global = 3.61823e-15, cumulative = 2.76347e-12
ExecutionTime = 716.39 s  ClockTime = 720 s

Time = 106.565

Courant Number mean: 0.00257396 max: 0.0158586 velocity magnitude: 0.0061897
BiCGStab:  Solving for Ux, Initial residual = 6.48748e-06, Final residual = 6.48748e-06, No Iterations 0
BiCGStab:  Solving for Uy, Initial residual = 1.6368e-05, Final residual = 1.35545e-13, No Iterations 1
DICPCG:  Solving for p, Initial residual = 0.000457531, Final residual = 4.54016e-05, No Iterations 149
time step continuity errors : sum local = 7.31745e-13, global = -3.57067e-15, cumulative = 2.7599e-12
DICPCG:  Solving for p, Initial residual = 0.000454553, Final residual = 4.51455e-05, No Iterations 149
time step continuity errors : sum local = 7.29012e-13, global = 3.54662e-15, cumulative = 2.76345e-12
ExecutionTime = 716.72 s  ClockTime = 721 s

Time = 106.57

Courant Number mean: 0.00257396 max: 0.0158586 velocity magnitude: 0.00618969
BiCGStab:  Solving for Ux, Initial residual = 6.48732e-06, Final residual = 6.48732e-06, No Iterations 0
BiCGStab:  Solving for Uy, Initial residual = 1.63672e-05, Final residual = 1.35536e-13, No Iterations 1
DICPCG:  Solving for p, Initial residual = 0.000459374, Final residual = 4.53173e-05, No Iterations 149
time step continuity errors : sum local = 7.30383e-13, global = -3.65297e-15, cumulative = 2.7598e-12
DICPCG:  Solving for p, Initial residual = 0.000453963, Final residual = 4.45185e-05, No Iterations 149
time step continuity errors : sum local = 7.18884e-13, global = 3.95093e-15, cumulative = 2.76375e-12
ExecutionTime = 717.05 s  ClockTime = 721 s

Time = 106.575

Courant Number mean: 0.00257396 max: 0.0158585 velocity magnitude: 0.00618968
BiCGStab:  Solving for Ux, Initial residual = 6.48717e-06, Final residual = 6.48717e-06, No Iterations 0
BiCGStab:  Solving for Uy, Initial residual = 1.63665e-05, Final residual = 1.35536e-13, No Iterations 1
DICPCG:  Solving for p, Initial residual = 0.000460524, Final residual = 4.53971e-05, No Iterations 149
time step continuity errors : sum local = 7.31665e-13, global = -3.38855e-15, cumulative = 2.76036e-12
DICPCG:  Solving for p, Initial residual = 0.000454003, Final residual = 4.25137e-05, No Iterations 150
time step continuity errors : sum local = 6.86507e-13, global = 4.58388e-15, cumulative = 2.76494e-12
ExecutionTime = 717.39 s  ClockTime = 721 s

Time = 106.58

Courant Number mean: 0.00257396 max: 0.0158585 velocity magnitude: 0.00618967
BiCGStab:  Solving for Ux, Initial residual = 6.487e-06, Final residual = 6.487e-06, No Iterations 0
BiCGStab:  Solving for Uy, Initial residual = 1.63657e-05, Final residual = 1.3553e-13, No Iterations 1
DICPCG:  Solving for p, Initial residual = 0.00046451, Final residual = 4.56823e-05, No Iterations 149
time step continuity errors : sum local = 7.36258e-13, global = -3.56266e-15, cumulative = 2.76138e-12
DICPCG:  Solving for p, Initial residual = 0.000454388, Final residual = 4.23287e-05, No Iterations 150
time step continuity errors : sum local = 6.83517e-13, global = 4.63894e-15, cumulative = 2.76602e-12
ExecutionTime = 717.73 s  ClockTime = 722 s

Time = 106.585

Courant Number mean: 0.00257396 max: 0.0158585 velocity magnitude: 0.00618966
BiCGStab:  Solving for Ux, Initial residual = 6.48686e-06, Final residual = 6.48686e-06, No Iterations 0
BiCGStab:  Solving for Uy, Initial residual = 1.6365e-05, Final residual = 1.35513e-13, No Iterations 1
DICPCG:  Solving for p, Initial residual = 0.000458003, Final residual = 4.27817e-05, No Iterations 150
time step continuity errors : sum local = 6.89507e-13, global = -4.71102e-15, cumulative = 2.76131e-12
DICPCG:  Solving for p, Initial residual = 0.000452638, Final residual = 4.41556e-05, No Iterations 149
time step continuity errors : sum local = 7.13014e-13, global = 3.77186e-15, cumulative = 2.76508e-12
ExecutionTime = 718.07 s  ClockTime = 722 s

Time = 106.59

Courant Number mean: 0.00257396 max: 0.0158584 velocity magnitude: 0.00618965
BiCGStab:  Solving for Ux, Initial residual = 6.48673e-06, Final residual = 6.48673e-06, No Iterations 0
BiCGStab:  Solving for Uy, Initial residual = 1.63643e-05, Final residual = 1.35492e-13, No Iterations 1
DICPCG:  Solving for p, Initial residual = 0.000472624, Final residual = 4.592e-05, No Iterations 149
time step continuity errors : sum local = 7.40083e-13, global = -3.75298e-15, cumulative = 2.76133e-12
DICPCG:  Solving for p, Initial residual = 0.000454127, Final residual = 4.38993e-05, No Iterations 149
time step continuity errors : sum local = 7.08871e-13, global = 3.85435e-15, cumulative = 2.76518e-12
ExecutionTime = 718.39 s  ClockTime = 722 s

Time = 106.595

Courant Number mean: 0.00257396 max: 0.0158584 velocity magnitude: 0.00618964
BiCGStab:  Solving for Ux, Initial residual = 6.48655e-06, Final residual = 6.48655e-06, No Iterations 0
BiCGStab:  Solving for Uy, Initial residual = 1.63635e-05, Final residual = 1.35485e-13, No Iterations 1
DICPCG:  Solving for p, Initial residual = 0.00045928, Final residual = 4.51998e-05, No Iterations 149
time step continuity errors : sum local = 7.28472e-13, global = -3.49655e-15, cumulative = 2.76168e-12
DICPCG:  Solving for p, Initial residual = 0.000454042, Final residual = 4.44892e-05, No Iterations 149
time step continuity errors : sum local = 7.18394e-13, global = 4.15362e-15, cumulative = 2.76584e-12
ExecutionTime = 718.72 s  ClockTime = 723 s

Time = 106.6

Courant Number mean: 0.00257396 max: 0.0158584 velocity magnitude: 0.00618963
BiCGStab:  Solving for Ux, Initial residual = 6.4864e-06, Final residual = 6.4864e-06, No Iterations 0
BiCGStab:  Solving for Uy, Initial residual = 1.63628e-05, Final residual = 1.35477e-13, No Iterations 1
DICPCG:  Solving for p, Initial residual = 0.000459749, Final residual = 4.53938e-05, No Iterations 149
time step continuity errors : sum local = 7.31595e-13, global = -3.36138e-15, cumulative = 2.76248e-12
DICPCG:  Solving for p, Initial residual = 0.000454454, Final residual = 4.4277e-05, No Iterations 149
time step continuity errors : sum local = 7.14964e-13, global = 3.96955e-15, cumulative = 2.76645e-12
ExecutionTime = 719.05 s  ClockTime = 723 s

Time = 106.605

Courant Number mean: 0.00257396 max: 0.0158583 velocity magnitude: 0.00618962
BiCGStab:  Solving for Ux, Initial residual = 6.48624e-06, Final residual = 6.48624e-06, No Iterations 0
BiCGStab:  Solving for Uy, Initial residual = 1.63621e-05, Final residual = 1.35464e-13, No Iterations 1
DICPCG:  Solving for p, Initial residual = 0.000457445, Final residual = 4.49603e-05, No Iterations 149
time step continuity errors : sum local = 7.24603e-13, global = -3.64348e-15, cumulative = 2.7628e-12
DICPCG:  Solving for p, Initial residual = 0.000454105, Final residual = 4.52879e-05, No Iterations 149
time step continuity errors : sum local = 7.31283e-13, global = 3.46965e-15, cumulative = 2.76627e-12
ExecutionTime = 719.37 s  ClockTime = 723 s

Time = 106.61

Courant Number mean: 0.00257396 max: 0.0158583 velocity magnitude: 0.00618961
BiCGStab:  Solving for Ux, Initial residual = 6.48609e-06, Final residual = 6.48609e-06, No Iterations 0
BiCGStab:  Solving for Uy, Initial residual = 1.63613e-05, Final residual = 1.35449e-13, No Iterations 1
DICPCG:  Solving for p, Initial residual = 0.000459025, Final residual = 4.57897e-05, No Iterations 149
time step continuity errors : sum local = 7.37968e-13, global = -3.54709e-15, cumulative = 2.76272e-12
DICPCG:  Solving for p, Initial residual = 0.000454378, Final residual = 4.47146e-05, No Iterations 149
time step continuity errors : sum local = 7.22023e-13, global = 3.49554e-15, cumulative = 2.76622e-12
ExecutionTime = 719.71 s  ClockTime = 724 s

Time = 106.615

Courant Number mean: 0.00257396 max: 0.0158583 velocity magnitude: 0.0061896
BiCGStab:  Solving for Ux, Initial residual = 6.48593e-06, Final residual = 6.48593e-06, No Iterations 0
BiCGStab:  Solving for Uy, Initial residual = 1.63606e-05, Final residual = 1.35444e-13, No Iterations 1
DICPCG:  Solving for p, Initial residual = 0.000458183, Final residual = 4.56783e-05, No Iterations 149
time step continuity errors : sum local = 7.36169e-13, global = -3.40893e-15, cumulative = 2.76281e-12
